* PEX produced on Min 07 Jul 2024 12:20:57  WIB using ./iic-pex.sh with m=3 and s=1
* NGSPICE file created from bgr_op5_block_rev1.ext - technology: sky130A

.subckt bgr_op5_block_rev1 ENA AVDD DVDD VREF VBGSC TRIM3 TRIM2 IPTAT VENA DVSS TRIM0
+ TRIM1 AVSS VBGTC
X0 VREF.t12 VREF.t10 VREF.t11 digital_0.VDDE.t35 sky130_fd_pr__pfet_01v8 ad=0.29 pd=2.58 as=0 ps=0 w=1 l=0.15
X1 pmos_current_bgr_2_0.D3.t15 pmos_current_bgr_2_0.D3.t13 pmos_current_bgr_2_0.D3.t14 AVSS.t117 sky130_fd_pr__nfet_01v8 ad=0.29 pd=2.58 as=0 ps=0 w=1 l=0.15
X2 digital_0.S1.t41 TRIM0.t0 bjt_0.B.t29 DVSS.t3 sky130_fd_pr__nfet_01v8_lvt ad=0.58 pd=4.29 as=0.58 ps=4.29 w=4 l=1
X3 digital_0.D3.t13 TRIM3.t0 digital_0.S3.t3 DVSS.t3 sky130_fd_pr__nfet_01v8_lvt ad=0.58 pd=4.29 as=0.58 ps=4.29 w=4 l=1
X4 digital_0.S3.t21 digital_0.S3.t20 digital_0.S3.t21 DVSS.t3 sky130_fd_pr__nfet_01v8_lvt ad=0.58 pd=4.29 as=0 ps=0 w=4 l=0.15
X5 pmos_iptat_0.G.t21 resistor_op_tt_0.C.t16 digital_0.VDDE.t20 digital_0.VDDE.t19 sky130_fd_pr__pfet_01v8 ad=0.145 pd=1.29 as=0.145 ps=1.29 w=1 l=10
X6 AVSS.t80 AVSS.t81 bjt_0.B.t27 sky130_fd_pr__pnp_05v5_W3p40L3p40
**devattr s=462400,2720 d=11121552,65696
X7 AVSS.t110 AVSS.t109 AVSS.t84 sky130_fd_pr__pnp_05v5_W3p40L3p40
**devattr s=462400,2720 d=11121552,65696
X8 pmos_startup_0.D3.t17 pmos_startup_0.D4.t3 AVSS.t19 AVSS.t2 sky130_fd_pr__nfet_01v8 ad=0.145 pd=1.29 as=0.145 ps=1.29 w=1 l=1
X9 digital_0.VDDE.t3 pmos_current_bgr_2_0.D4.t4 pmos_current_bgr_2_0.D4.t5 digital_0.VDDE.t2 sky130_fd_pr__pfet_01v8 ad=0.145 pd=1.29 as=0.145 ps=1.29 w=1 l=10
X10 a_n4883_22159.t1 a_n547_22325.t0 AVSS.t9 sky130_fd_pr__res_high_po_0p35 l=17
X11 a_n17355_21661.t0 a_n13555_21661.t1 AVSS.t17 sky130_fd_pr__res_high_po_0p35 l=17
X12 pmos_current_bgr_2_0.D4.t16 pmos_current_bgr_2_0.D4.t14 pmos_current_bgr_2_0.D4.t15 digital_0.VDDE.t13 sky130_fd_pr__pfet_01v8 ad=0.29 pd=2.58 as=0 ps=0 w=1 l=0.15
X13 bjt_0.B.t28 TRIM0.t1 digital_0.S1.t40 DVSS.t3 sky130_fd_pr__nfet_01v8_lvt ad=0.58 pd=4.29 as=0.58 ps=4.29 w=4 l=1
X14 pmos_startup_0.D3.t11 pmos_startup_0.D3.t9 pmos_startup_0.D3.t10 AVSS.t2 sky130_fd_pr__nfet_01v8 ad=0.29 pd=2.58 as=0 ps=0 w=1 l=0.15
X15 a_n13555_21329.t1 a_n9219_21163.t1 AVSS.t16 sky130_fd_pr__res_high_po_0p35 l=17
X16 a_n13555_20997.t1 a_n9219_20997.t1 AVSS.t16 sky130_fd_pr__res_high_po_0p35 l=17
X17 pmos_startup_0.D3.t8 pmos_startup_0.D3.t7 pmos_startup_0.D3.t8 AVSS.t2 sky130_fd_pr__nfet_01v8 ad=0.145 pd=1.29 as=0 ps=0 w=1 l=0.15
X18 a_n9219_19433.t1 a_n4883_19433.t1 AVSS.t6 sky130_fd_pr__res_high_po_0p35 l=17
X19 pmos_current_bgr_2_0.D4.t0 pmos_current_bgr_2_0.D3.t17 resistor_op_tt_0.A.t2 AVSS.t117 sky130_fd_pr__nfet_01v8 ad=0.29 pd=2.58 as=0.29 ps=2.58 w=1 l=20
X20 digital_0.S3.t8 digital_0.D3.t16 AVSS.t10 sky130_fd_pr__res_high_po_0p35 l=8.4
X21 pmos_startup_0.D3.t6 pmos_startup_0.D3.t5 pmos_startup_0.D3.t6 digital_0.VDDE.t5 sky130_fd_pr__pfet_01v8 ad=0.145 pd=1.29 as=0 ps=0 w=1 l=0.15
X22 a_n4883_22325.t0 a_n547_22159.t0 AVSS.t9 sky130_fd_pr__res_high_po_0p35 l=17
X23 a_n17355_21495.t1 a_n13555_21495.t0 AVSS.t17 sky130_fd_pr__res_high_po_0p35 l=17
X24 a_n9219_20595.t0 a_n4883_20595.t1 AVSS.t6 sky130_fd_pr__res_high_po_0p35 l=17
X25 a_n4883_19931.t1 a_n547_19931.t1 AVSS.t9 sky130_fd_pr__res_high_po_0p35 l=17
X26 digital_0.S3.t10 digital_0.S2.t26 AVSS.t13 sky130_fd_pr__res_high_po_0p35 l=8.4
X27 pmos_iptat_0.G.t22 resistor_op_tt_0.D.t7 sky130_fd_pr__cap_mim_m3_1 l=17 w=17
X28 IPTAT.t9 IPTAT.t7 IPTAT.t8 digital_0.VDDE.t8 sky130_fd_pr__pfet_01v8 ad=0.29 pd=2.58 as=0 ps=0 w=1 l=0.15
X29 digital_0.VDDE.t61 digital_0.VDDE.t59 digital_0.VDDE.t60 DVDD.t0 sky130_fd_pr__pfet_01v8 ad=0.29 pd=2.29 as=0 ps=0 w=2 l=0.15
X30 digital_0.VDDE.t58 digital_0.VDDE.t57 digital_0.VDDE.t58 digital_0.VDDE.t21 sky130_fd_pr__pfet_01v8 ad=0.145 pd=1.29 as=0 ps=0 w=1 l=10
X31 AVSS.t121 pmos_current_bgr_2_0.D3.t18 pmos_iptat_0.G.t1 AVSS.t15 sky130_fd_pr__nfet_01v8 ad=0.29 pd=2.58 as=0.29 ps=2.58 w=1 l=20
X32 a_n547_22159.t1 a_3789_22325.t0 AVSS.t23 sky130_fd_pr__res_high_po_0p35 l=17
X33 VREF.t9 VREF.t8 VREF.t9 digital_0.VDDE.t4 sky130_fd_pr__pfet_01v8 ad=0.145 pd=1.29 as=0 ps=0 w=1 l=0.15
X34 bjt_0.B.t35 bjt_0.B.t36 AVSS.t10 sky130_fd_pr__res_high_po_0p35 l=8.4
X35 pmos_current_bgr_0.D1.t4 pmos_iptat_0.G.t23 digital_0.VDDE.t67 digital_0.VDDE.t45 sky130_fd_pr__pfet_01v8 ad=0.145 pd=1.29 as=0.145 ps=1.29 w=1 l=10
X36 a_n9219_21827.t1 digital_0.SVBGSC.t1 AVSS.t6 sky130_fd_pr__res_high_po_0p35 l=17
X37 a_n4883_19765.t1 a_n547_19765.t1 AVSS.t9 sky130_fd_pr__res_high_po_0p35 l=17
X38 digital_0.S1.t57 bjt_0.B.t40 AVSS.t13 sky130_fd_pr__res_high_po_0p35 l=8.4
X39 bjt_0.B.t38 bjt_0.B.t39 AVSS.t10 sky130_fd_pr__res_high_po_0p35 l=8.4
X40 differential_pair_0.S.t11 differential_pair_0.S.t9 differential_pair_0.S.t10 AVSS.t47 sky130_fd_pr__nfet_01v8 ad=0.29 pd=2.58 as=0 ps=0 w=1 l=0.15
X41 AVSS.t73 AVSS.t74 sky130_fd_pr__cap_mim_m3_1 l=17 w=17
X42 a_n4883_20429.t1 a_n547_20429.t1 AVSS.t9 sky130_fd_pr__res_high_po_0p35 l=17
X43 AVSS.t71 AVSS.t72 sky130_fd_pr__cap_mim_m3_1 l=17 w=17
X44 digital_0.VDDE.t56 digital_0.VDDE.t55 digital_0.VDDE.t56 digital_0.VDDE.t16 sky130_fd_pr__pfet_01v8 ad=0.145 pd=1.29 as=0 ps=0 w=1 l=10
X45 a_3789_22159.t0 a_8125_21993.t0 AVSS.t23 sky130_fd_pr__res_high_po_0p35 l=17
X46 a_n9219_21163.t0 a_n4883_21329.t1 AVSS.t6 sky130_fd_pr__res_high_po_0p35 l=17
X47 AVSS.t80 AVSS.t79 bjt_0.B.t26 sky130_fd_pr__pnp_05v5_W3p40L3p40
**devattr s=462400,2720 d=11121552,65696
X48 a_n547_22325.t1 a_3789_22159.t1 AVSS.t34 sky130_fd_pr__res_high_po_0p35 l=17
X49 a_n547_19931.t0 a_3789_19931.t1 AVSS.t33 sky130_fd_pr__res_high_po_0p35 l=17
X50 resistor_op_tt_0.C.t15 differential_pair_0.D4.t16 digital_0.VDDE.t70 digital_0.VDDE.t0 sky130_fd_pr__pfet_01v8 ad=0.145 pd=1.29 as=0.145 ps=1.29 w=1 l=10
X51 digital_0.S1.t53 digital_0.S1.t52 digital_0.S1.t53 DVSS.t3 sky130_fd_pr__nfet_01v8_lvt ad=0.58 pd=4.29 as=0 ps=0 w=4 l=0.15
X52 AVSS.t108 AVSS.t107 AVSS.t84 sky130_fd_pr__pnp_05v5_W3p40L3p40
**devattr s=462400,2720 d=11121552,65696
X53 pmos_current_bgr_2_0.D4.t13 pmos_current_bgr_2_0.D4.t11 pmos_current_bgr_2_0.D4.t12 AVSS.t117 sky130_fd_pr__nfet_01v8 ad=0.29 pd=2.58 as=0 ps=0 w=1 l=0.15
X54 a_n4883_19599.t1 a_n547_19599.t0 AVSS.t9 sky130_fd_pr__res_high_po_0p35 l=17
X55 digital_0.S1.t14 digital_0.S1.t15 AVSS.t10 sky130_fd_pr__res_high_po_0p35 l=8.4
X56 pmos_startup_0.D3.t16 pmos_startup_0.D4.t4 AVSS.t1 AVSS.t0 sky130_fd_pr__nfet_01v8 ad=0.145 pd=1.29 as=0.145 ps=1.29 w=1 l=1
X57 AVSS.t90 AVSS.t105 AVSS.t106 sky130_fd_pr__pnp_05v5_W3p40L3p40
**devattr s=462400,2720 d=11121552,65696
X58 a_n4883_21661.t1 digital_0.D3.t15 AVSS.t9 sky130_fd_pr__res_high_po_0p35 l=17
X59 digital_0.S1.t12 digital_0.S1.t13 AVSS.t10 sky130_fd_pr__res_high_po_0p35 l=8.4
X60 pmos_iptat_0.G.t17 pmos_iptat_0.G.t15 pmos_iptat_0.G.t16 digital_0.VDDE.t35 sky130_fd_pr__pfet_01v8 ad=0.29 pd=2.58 as=0 ps=0 w=1 l=0.15
X61 digital_0.S2.t22 digital_0.S2.t20 digital_0.S2.t21 DVSS.t0 sky130_fd_pr__nfet_01v8_lvt ad=1.16 pd=8.58 as=0 ps=0 w=4 l=0.15
X62 a_n4883_22491.t0 a_n547_22491.t0 AVSS.t9 sky130_fd_pr__res_high_po_0p35 l=17
X63 a_3789_22325.t1 a_8125_21827.t0 AVSS.t34 sky130_fd_pr__res_high_po_0p35 l=17
X64 a_3789_19931.t0 a_8125_19931.t0 AVSS.t33 sky130_fd_pr__res_high_po_0p35 l=17
X65 pmos_startup_0.D3.t4 pmos_startup_0.D3.t2 pmos_startup_0.D3.t3 AVSS.t0 sky130_fd_pr__nfet_01v8 ad=0.29 pd=2.58 as=0 ps=0 w=1 l=0.15
X66 AVSS.t69 AVSS.t70 sky130_fd_pr__cap_mim_m3_1 l=17 w=17
X67 digital_0.S3.t2 TRIM3.t1 digital_0.D3.t12 DVSS.t3 sky130_fd_pr__nfet_01v8_lvt ad=0.58 pd=4.29 as=0.58 ps=4.29 w=4 l=1
X68 digital_0.D3.t9 digital_0.D3.t7 digital_0.D3.t8 DVSS.t3 sky130_fd_pr__nfet_01v8_lvt ad=1.16 pd=8.58 as=0 ps=0 w=4 l=0.15
X69 differential_pair_0.D4.t15 differential_pair_0.D4.t13 differential_pair_0.D4.t14 AVSS.t28 sky130_fd_pr__nfet_01v8 ad=0.261 pd=2.38 as=0 ps=0 w=0.9 l=0.15
X70 VREF.t13 pmos_iptat_0.G.t24 digital_0.VDDE.t65 digital_0.VDDE.t19 sky130_fd_pr__pfet_01v8 ad=0.145 pd=1.29 as=0.145 ps=1.29 w=1 l=10
X71 pmos_iptat_0.G.t0 pmos_current_bgr_2_0.D3.t19 AVSS.t120 AVSS.t47 sky130_fd_pr__nfet_01v8 ad=0.29 pd=2.58 as=0.29 ps=2.58 w=1 l=20
X72 digital_0.SVBGSC.t0 VENA.t0 VBGSC.t7 DVSS.t1 sky130_fd_pr__nfet_01v8_lvt ad=0.145 pd=1.29 as=0.145 ps=1.29 w=1 l=1
X73 VBGTC.t5 VBGTC.t3 VBGTC.t4 DVSS.t5 sky130_fd_pr__nfet_01v8_lvt ad=0.29 pd=2.58 as=0 ps=0 w=1 l=0.15
X74 a_n547_19765.t0 a_3789_19765.t0 AVSS.t32 sky130_fd_pr__res_high_po_0p35 l=17
X75 digital_0.VDDE.t34 pmos_iptat_0.G.t25 VREF.t1 digital_0.VDDE.t32 sky130_fd_pr__pfet_01v8 ad=0.145 pd=1.29 as=0.145 ps=1.29 w=1 l=10
X76 digital_0.S2.t5 TRIM2.t0 digital_0.S3.t5 DVSS.t0 sky130_fd_pr__nfet_01v8_lvt ad=0.58 pd=4.29 as=0.58 ps=4.29 w=4 l=1
X77 pmos_startup_0.D3.t1 pmos_startup_0.D3.t0 pmos_startup_0.D3.t1 AVSS.t0 sky130_fd_pr__nfet_01v8 ad=0.145 pd=1.29 as=0 ps=0 w=1 l=0.15
X78 AVSS.t90 AVSS.t103 AVSS.t104 sky130_fd_pr__pnp_05v5_W3p40L3p40
**devattr s=462400,2720 d=11121552,65696
X79 differential_pair_0.PLUS.t1 a_n13555_21163.t1 AVSS.t17 sky130_fd_pr__res_high_po_0p35 l=17
X80 a_n547_20429.t0 a_3789_20429.t0 AVSS.t14 sky130_fd_pr__res_high_po_0p35 l=17
X81 digital_0.S2.t0 digital_0.S1.t0 AVSS.t13 sky130_fd_pr__res_high_po_0p35 l=8.4
X82 AVSS.t67 AVSS.t68 sky130_fd_pr__cap_mim_m3_1 l=17 w=17
X83 AVSS.t129 a_n13555_20997.t0 AVSS.t17 sky130_fd_pr__res_high_po_0p35 l=17
X84 a_n9219_20263.t0 a_n4883_20263.t1 AVSS.t6 sky130_fd_pr__res_high_po_0p35 l=17
X85 digital_0.S1.t37 bjt_0.B.t19 AVSS.t10 sky130_fd_pr__res_high_po_0p35 l=8.4
X86 AVSS.t80 AVSS.t114 bjt_0.B.t25 sky130_fd_pr__pnp_05v5_W3p40L3p40
**devattr s=462400,2720 d=11121552,65696
X87 a_3789_19765.t1 a_8125_19599.t1 AVSS.t32 sky130_fd_pr__res_high_po_0p35 l=17
X88 digital_0.VDDE.t9 differential_pair_0.D4.t4 differential_pair_0.D4.t5 digital_0.VDDE.t2 sky130_fd_pr__pfet_01v8 ad=0.145 pd=1.29 as=0.145 ps=1.29 w=1 l=10
X89 digital_0.VDDE.t72 ENA.t0 AVDD.t3 DVDD.t1 sky130_fd_pr__pfet_01v8 ad=0.29 pd=2.29 as=0.29 ps=2.29 w=2 l=2
X90 a_3789_20429.t1 a_8125_20263.t1 AVSS.t14 sky130_fd_pr__res_high_po_0p35 l=17
X91 differential_pair_0.D4.t12 differential_pair_0.D4.t10 differential_pair_0.D4.t11 digital_0.VDDE.t13 sky130_fd_pr__pfet_01v8 ad=0.29 pd=2.58 as=0 ps=0 w=1 l=0.15
X92 AVDD.t2 ENA.t1 digital_0.VDDE.t11 DVDD.t1 sky130_fd_pr__pfet_01v8 ad=0.29 pd=2.29 as=0.29 ps=2.29 w=2 l=2
X93 digital_0.VDDE.t54 digital_0.VDDE.t52 digital_0.VDDE.t53 DVDD.t1 sky130_fd_pr__pfet_01v8 ad=0.58 pd=4.58 as=0 ps=0 w=2 l=0.15
X94 digital_0.S1.t51 digital_0.S1.t49 digital_0.S1.t50 DVSS.t3 sky130_fd_pr__nfet_01v8_lvt ad=1.16 pd=8.58 as=0 ps=0 w=4 l=0.15
X95 digital_0.S2.t12 TRIM1.t0 digital_0.S1.t31 DVSS.t3 sky130_fd_pr__nfet_01v8_lvt ad=0.58 pd=4.29 as=0.58 ps=4.29 w=4 l=1
X96 differential_pair_0.D4.t1 bjt_0.A.t2 differential_pair_0.S.t3 AVSS.t27 sky130_fd_pr__nfet_01v8 ad=0.1305 pd=1.19 as=0.1305 ps=1.19 w=0.9 l=13
X97 a_n547_19599.t1 a_3789_19599.t1 AVSS.t39 sky130_fd_pr__res_high_po_0p35 l=17
X98 AVSS.t3 pmos_startup_0.D4.t5 pmos_startup_0.D3.t15 AVSS.t2 sky130_fd_pr__nfet_01v8 ad=0.145 pd=1.29 as=0.145 ps=1.29 w=1 l=1
X99 digital_0.D3.t6 digital_0.D3.t5 digital_0.D3.t6 DVSS.t3 sky130_fd_pr__nfet_01v8_lvt ad=0.58 pd=4.29 as=0 ps=0 w=4 l=0.15
X100 a_n547_21993.t1 a_3789_21827.t0 AVSS.t42 sky130_fd_pr__res_high_po_0p35 l=17
X101 resistor_op_tt_0.C.t14 resistor_op_tt_0.C.t13 resistor_op_tt_0.C.t14 AVSS.t28 sky130_fd_pr__nfet_01v8 ad=0.1305 pd=1.19 as=0 ps=0 w=0.9 l=0.15
X102 a_n13555_22159.t1 a_n9219_22325.t1 AVSS.t16 sky130_fd_pr__res_high_po_0p35 l=17
X103 differential_pair_0.PLUS.t0 a_n4883_21661.t0 AVSS.t6 sky130_fd_pr__res_high_po_0p35 l=17
X104 digital_0.S1.t32 bjt_0.B.t17 AVSS.t13 sky130_fd_pr__res_high_po_0p35 l=8.4
X105 a_n547_22491.t1 a_3789_22491.t0 AVSS.t35 sky130_fd_pr__res_high_po_0p35 l=17
X106 a_n9219_20097.t1 a_n4883_20097.t0 AVSS.t6 sky130_fd_pr__res_high_po_0p35 l=17
X107 a_n4883_19433.t0 a_n547_19433.t0 AVSS.t9 sky130_fd_pr__res_high_po_0p35 l=17
X108 digital_0.S2.t24 digital_0.S2.t25 AVSS.t13 sky130_fd_pr__res_high_po_0p35 l=8.4
X109 digital_0.VDDE.t23 pmos_iptat_0.G.t26 pmos_current_bgr_0.D1.t3 digital_0.VDDE.t21 sky130_fd_pr__pfet_01v8 ad=0.145 pd=1.29 as=0.145 ps=1.29 w=1 l=10
X110 pmos_current_bgr_2_0.D4.t10 pmos_current_bgr_2_0.D4.t9 pmos_current_bgr_2_0.D4.t10 digital_0.VDDE.t25 sky130_fd_pr__pfet_01v8 ad=0.145 pd=1.29 as=0 ps=0 w=1 l=0.15
X111 pmos_iptat_0.G.t27 resistor_op_tt_0.D.t6 sky130_fd_pr__cap_mim_m3_1 l=17 w=17
X112 digital_0.S1.t6 TRIM1.t1 digital_0.S2.t2 DVSS.t3 sky130_fd_pr__nfet_01v8_lvt ad=0.58 pd=4.29 as=0.58 ps=4.29 w=4 l=1
X113 a_3789_19599.t0 a_8125_19599.t0 AVSS.t39 sky130_fd_pr__res_high_po_0p35 l=17
X114 resistor_op_tt_0.A.t1 pmos_current_bgr_2_0.D3.t20 pmos_current_bgr_2_0.D4.t1 AVSS.t5 sky130_fd_pr__nfet_01v8 ad=0.29 pd=2.58 as=0.29 ps=2.58 w=1 l=20
X115 digital_0.SVBGTC.t3 a_8125_21827.t1 AVSS.t42 sky130_fd_pr__res_high_po_0p35 l=17
X116 a_n4883_20595.t0 a_n547_20595.t0 AVSS.t9 sky130_fd_pr__res_high_po_0p35 l=17
X117 pmos_iptat_0.G.t14 pmos_iptat_0.G.t12 pmos_iptat_0.G.t13 AVSS.t47 sky130_fd_pr__nfet_01v8 ad=0.29 pd=2.58 as=0 ps=0 w=1 l=0.15
X118 digital_0.VDDE.t31 pmos_iptat_0.G.t28 IPTAT.t13 digital_0.VDDE.t29 sky130_fd_pr__pfet_01v8 ad=0.145 pd=1.29 as=0.145 ps=1.29 w=1 l=10
X119 digital_0.S2.t19 digital_0.S2.t18 digital_0.S2.t19 DVSS.t0 sky130_fd_pr__nfet_01v8_lvt ad=0.58 pd=4.29 as=0 ps=0 w=4 l=0.15
X120 AVSS.t102 AVSS.t101 AVSS.t84 sky130_fd_pr__pnp_05v5_W3p40L3p40
**devattr s=462400,2720 d=11121552,65696
X121 a_3789_22491.t1 AVSS.t125 AVSS.t35 sky130_fd_pr__res_high_po_0p35 l=17
X122 digital_0.VDDE.t51 digital_0.VDDE.t50 digital_0.VDDE.t51 digital_0.VDDE.t45 sky130_fd_pr__pfet_01v8 ad=0.145 pd=1.29 as=0 ps=0 w=1 l=10
X123 a_n13555_22325.t1 a_n9219_22159.t1 AVSS.t16 sky130_fd_pr__res_high_po_0p35 l=17
X124 a_n9219_21661.t0 a_n4883_21495.t0 AVSS.t6 sky130_fd_pr__res_high_po_0p35 l=17
X125 a_n13019_19765.t1 a_n9219_19931.t1 AVSS.t16 sky130_fd_pr__res_high_po_0p35 l=17
X126 digital_0.S1.t27 digital_0.S1.t28 AVSS.t10 sky130_fd_pr__res_high_po_0p35 l=8.4
X127 bjt_0.B.t37 digital_0.S1.t56 AVSS.t10 sky130_fd_pr__res_high_po_0p35 l=8.4
X128 digital_0.S2.t7 digital_0.S1.t9 AVSS.t10 sky130_fd_pr__res_high_po_0p35 l=8.4
X129 differential_pair_0.D4.t9 differential_pair_0.D4.t8 differential_pair_0.D4.t9 digital_0.VDDE.t25 sky130_fd_pr__pfet_01v8 ad=0.145 pd=1.29 as=0 ps=0 w=1 l=0.15
X130 AVSS.t76 AVSS.t100 AVSS.t76 sky130_fd_pr__pnp_05v5_W3p40L3p40
**devattr s=462400,2720 d=11121552,65696
X131 pmos_startup_0.D4.t1 pmos_startup_0.D4.t0 pmos_startup_0.D4.t1 digital_0.VDDE.t5 sky130_fd_pr__pfet_01v8 ad=0.145 pd=1.29 as=0 ps=0 w=1 l=0.15
X132 pmos_iptat_0.G.t11 pmos_iptat_0.G.t9 pmos_iptat_0.G.t10 digital_0.VDDE.t35 sky130_fd_pr__pfet_01v8 ad=0.29 pd=2.58 as=0 ps=0 w=1 l=0.15
X133 a_n9219_21993.t1 a_n547_21993.t0 AVSS.t9 sky130_fd_pr__res_high_po_0p35 l=17
X134 differential_pair_0.S.t0 differential_pair_0.PLUS.t2 resistor_op_tt_0.C.t1 AVSS.t27 sky130_fd_pr__nfet_01v8 ad=0.1305 pd=1.19 as=0.1305 ps=1.19 w=0.9 l=13
X135 a_n547_19433.t1 a_3789_19433.t0 AVSS.t46 sky130_fd_pr__res_high_po_0p35 l=17
X136 IPTAT.t6 IPTAT.t5 IPTAT.t6 digital_0.VDDE.t18 sky130_fd_pr__pfet_01v8 ad=0.145 pd=1.29 as=0 ps=0 w=1 l=0.15
X137 AVSS.t65 AVSS.t66 sky130_fd_pr__cap_mim_m3_1 l=17 w=17
X138 a_n13019_19765.t0 a_n9219_19765.t1 AVSS.t16 sky130_fd_pr__res_high_po_0p35 l=17
X139 AVDD.t1 ENA.t2 digital_0.VDDE.t62 DVDD.t0 sky130_fd_pr__pfet_01v8 ad=0.29 pd=2.29 as=0.29 ps=2.29 w=2 l=2
X140 digital_0.VDDE.t6 ENA.t3 AVDD.t0 DVDD.t0 sky130_fd_pr__pfet_01v8 ad=0.29 pd=2.29 as=0.29 ps=2.29 w=2 l=2
X141 AVSS.t90 AVSS.t98 AVSS.t99 sky130_fd_pr__pnp_05v5_W3p40L3p40
**devattr s=462400,2720 d=11121552,65696
X142 AVSS.t76 AVSS.t97 AVSS.t76 sky130_fd_pr__pnp_05v5_W3p40L3p40
**devattr s=462400,2720 d=11121552,65696
X143 AVSS.t41 a_n9219_20429.t1 AVSS.t16 sky130_fd_pr__res_high_po_0p35 l=17
X144 digital_0.S1.t26 digital_0.S2.t9 AVSS.t10 sky130_fd_pr__res_high_po_0p35 l=8.4
X145 digital_0.S1.t11 bjt_0.B.t6 AVSS.t10 sky130_fd_pr__res_high_po_0p35 l=8.4
X146 pmos_iptat_0.G.t8 pmos_iptat_0.G.t6 pmos_iptat_0.G.t7 AVSS.t15 sky130_fd_pr__nfet_01v8 ad=0.29 pd=2.58 as=0 ps=0 w=1 l=0.15
X147 digital_0.VDDE.t49 digital_0.VDDE.t47 digital_0.VDDE.t48 DVDD.t0 sky130_fd_pr__pfet_01v8 ad=0.58 pd=4.58 as=0 ps=0 w=2 l=0.15
X148 pmos_startup_0.D3.t13 pmos_startup_0.D3.t12 digital_0.VDDE.t68 digital_0.VDDE.t14 sky130_fd_pr__pfet_01v8 ad=0.145 pd=1.29 as=0.145 ps=1.29 w=1 l=10
X149 a_n4883_21163.t0 a_n547_21329.t0 AVSS.t9 sky130_fd_pr__res_high_po_0p35 l=17
X150 a_n547_20595.t1 a_3789_20595.t1 AVSS.t44 sky130_fd_pr__res_high_po_0p35 l=17
X151 IPTAT.t12 pmos_iptat_0.G.t29 digital_0.VDDE.t28 digital_0.VDDE.t26 sky130_fd_pr__pfet_01v8 ad=0.145 pd=1.29 as=0.145 ps=1.29 w=1 l=10
X152 AVSS.t78 AVSS.t96 AVSS.t78 sky130_fd_pr__pnp_05v5_W3p40L3p40
**devattr s=462400,2720 d=11121552,65696
X153 AVSS.t95 AVSS.t94 AVSS.t84 sky130_fd_pr__pnp_05v5_W3p40L3p40
**devattr s=462400,2720 d=11121552,65696
X154 a_3789_19433.t1 AVSS.t122 AVSS.t46 sky130_fd_pr__res_high_po_0p35 l=17
X155 digital_0.S3.t6 TRIM2.t1 digital_0.S2.t6 DVSS.t0 sky130_fd_pr__nfet_01v8_lvt ad=0.58 pd=4.29 as=0.58 ps=4.29 w=4 l=1
X156 digital_0.VDDE.t63 resistor_op_tt_0.C.t17 pmos_iptat_0.G.t20 digital_0.VDDE.t32 sky130_fd_pr__pfet_01v8 ad=0.145 pd=1.29 as=0.145 ps=1.29 w=1 l=10
X157 resistor_op_tt_0.D.t1 resistor_op_tt_0.D.t2 sky130_fd_pr__cap_mim_m3_1 l=17 w=17
X158 a_3789_20595.t0 AVSS.t45 AVSS.t44 sky130_fd_pr__res_high_po_0p35 l=17
X159 pmos_startup_0.D2.t1 a_n9219_19599.t1 AVSS.t16 sky130_fd_pr__res_high_po_0p35 l=17
X160 AVSS.t4 pmos_startup_0.D4.t6 pmos_startup_0.D3.t14 AVSS.t0 sky130_fd_pr__nfet_01v8 ad=0.145 pd=1.29 as=0.145 ps=1.29 w=1 l=1
X161 a_n13555_21993.t0 a_n9219_21827.t0 AVSS.t16 sky130_fd_pr__res_high_po_0p35 l=17
X162 AVSS.t78 AVSS.t93 AVSS.t78 sky130_fd_pr__pnp_05v5_W3p40L3p40
**devattr s=462400,2720 d=11121552,65696
X163 digital_0.SVBGSC.t2 digital_0.SVBGTC.t2 AVSS.t38 sky130_fd_pr__res_high_po_0p35 l=17
X164 digital_0.S1.t42 digital_0.S1.t43 AVSS.t10 sky130_fd_pr__res_high_po_0p35 l=8.4
X165 digital_0.S1.t23 digital_0.S1.t24 AVSS.t10 sky130_fd_pr__res_high_po_0p35 l=8.4
X166 digital_0.S3.t19 digital_0.S3.t17 digital_0.S3.t18 DVSS.t0 sky130_fd_pr__nfet_01v8_lvt ad=1.16 pd=8.58 as=0 ps=0 w=4 l=0.15
X167 a_n13555_22491.t1 a_n9219_22491.t1 AVSS.t16 sky130_fd_pr__res_high_po_0p35 l=17
X168 pmos_current_bgr_2_0.D3.t12 pmos_current_bgr_2_0.D3.t11 pmos_current_bgr_2_0.D3.t12 digital_0.VDDE.t25 sky130_fd_pr__pfet_01v8 ad=0.145 pd=1.29 as=0 ps=0 w=1 l=0.15
X169 differential_pair_0.S.t5 pmos_current_bgr_2_0.D3.t21 AVSS.t119 AVSS.t15 sky130_fd_pr__nfet_01v8 ad=0.29 pd=2.58 as=0.29 ps=2.58 w=1 l=20
X170 VREF.t0 a_n13555_22325.t0 AVSS.t17 sky130_fd_pr__res_high_po_0p35 l=17
X171 a_n4883_20263.t0 a_n547_20263.t0 AVSS.t9 sky130_fd_pr__res_high_po_0p35 l=17
X172 VREF.t7 VREF.t6 VREF.t7 digital_0.VDDE.t4 sky130_fd_pr__pfet_01v8 ad=0.145 pd=1.29 as=0 ps=0 w=1 l=0.15
X173 AVSS.t63 AVSS.t64 sky130_fd_pr__cap_mim_m3_1 l=17 w=17
X174 a_3789_21827.t1 a_8125_21993.t1 AVSS.t38 sky130_fd_pr__res_high_po_0p35 l=17
X175 a_n547_21163.t1 a_3789_21329.t0 AVSS.t50 sky130_fd_pr__res_high_po_0p35 l=17
X176 pmos_iptat_0.G.t27 resistor_op_tt_0.D.t5 sky130_fd_pr__cap_mim_m3_1 l=17 w=17
X177 VBGSC.t5 VBGSC.t3 VBGSC.t4 DVSS.t8 sky130_fd_pr__nfet_01v8_lvt ad=0.29 pd=2.58 as=0 ps=0 w=1 l=0.15
X178 a_n9219_21329.t1 a_n4883_21163.t1 AVSS.t6 sky130_fd_pr__res_high_po_0p35 l=17
X179 a_n9219_20997.t0 a_n4883_20997.t0 AVSS.t6 sky130_fd_pr__res_high_po_0p35 l=17
X180 bjt_0.B.t15 digital_0.S1.t25 AVSS.t10 sky130_fd_pr__res_high_po_0p35 l=8.4
X181 digital_0.S2.t28 digital_0.S1.t55 AVSS.t10 sky130_fd_pr__res_high_po_0p35 l=8.4
X182 digital_0.VDDE.t46 digital_0.VDDE.t44 digital_0.VDDE.t46 digital_0.VDDE.t45 sky130_fd_pr__pfet_01v8 ad=0.145 pd=1.29 as=0 ps=0 w=1 l=10
X183 digital_0.S1.t17 bjt_0.B.t8 AVSS.t10 sky130_fd_pr__res_high_po_0p35 l=8.4
X184 AVSS.t124 a_220_15663.t1 AVSS.t123 sky130_fd_pr__res_high_po_0p35 l=4.5
X185 a_n4883_21495.t2 a_n4883_21495.t3 AVSS.t9 sky130_fd_pr__res_high_po_0p35 l=17
X186 a_3789_21163.t0 a_8125_21329.t1 AVSS.t50 sky130_fd_pr__res_high_po_0p35 l=17
X187 VBGTC.t7 VENA.t1 digital_0.SVBGTC.t1 DVSS.t2 sky130_fd_pr__nfet_01v8_lvt ad=0.145 pd=1.29 as=0.145 ps=1.29 w=1 l=1
X188 pmos_current_bgr_0.D1.t0 a_n13555_22159.t0 AVSS.t17 sky130_fd_pr__res_high_po_0p35 l=17
X189 a_n4883_20097.t1 a_n547_20097.t1 AVSS.t9 sky130_fd_pr__res_high_po_0p35 l=17
X190 digital_0.S1.t4 digital_0.S1.t5 AVSS.t10 sky130_fd_pr__res_high_po_0p35 l=8.4
X191 bjt_0.B.t16 digital_0.S1.t29 AVSS.t10 sky130_fd_pr__res_high_po_0p35 l=8.4
X192 digital_0.S2.t17 digital_0.S2.t15 digital_0.S2.t16 DVSS.t3 sky130_fd_pr__nfet_01v8_lvt ad=1.16 pd=8.58 as=0 ps=0 w=4 l=0.15
X193 AVSS.t90 AVSS.t91 AVSS.t92 sky130_fd_pr__pnp_05v5_W3p40L3p40
**devattr s=462400,2720 d=11121552,65696
X194 AVSS.t29 a_n9219_19433.t0 AVSS.t16 sky130_fd_pr__res_high_po_0p35 l=17
X195 digital_0.S1.t59 digital_0.S2.t31 AVSS.t10 sky130_fd_pr__res_high_po_0p35 l=8.4
X196 digital_0.S1.t10 bjt_0.B.t5 AVSS.t10 sky130_fd_pr__res_high_po_0p35 l=8.4
X197 AVSS.t61 AVSS.t62 sky130_fd_pr__cap_mim_m3_1 l=17 w=17
X198 AVSS.t76 AVSS.t113 bjt_0.B.t24 sky130_fd_pr__pnp_05v5_W3p40L3p40
**devattr s=462400,2720 d=11121552,65696
X199 bjt_0.B.t32 bjt_0.B.t33 AVSS.t10 sky130_fd_pr__res_high_po_0p35 l=8.4
X200 resistor_op_tt_0.D.t0 a_220_14999.t1 AVSS.t37 sky130_fd_pr__res_high_po_0p35 l=4.5
X201 a_n547_20263.t1 a_3789_20263.t1 AVSS.t12 sky130_fd_pr__res_high_po_0p35 l=17
X202 VREF.t5 VREF.t3 VREF.t4 digital_0.VDDE.t35 sky130_fd_pr__pfet_01v8 ad=0.29 pd=2.58 as=0 ps=0 w=1 l=0.15
X203 VREF.t14 pmos_iptat_0.G.t24 digital_0.VDDE.t64 digital_0.VDDE.t19 sky130_fd_pr__pfet_01v8 ad=0.145 pd=1.29 as=0.145 ps=1.29 w=1 l=10
X204 a_n9219_21495.t1 a_n547_21495.t0 AVSS.t9 sky130_fd_pr__res_high_po_0p35 l=17
X205 AVSS.t43 a_n9219_20595.t1 AVSS.t16 sky130_fd_pr__res_high_po_0p35 l=17
X206 digital_0.S2.t27 TRIM2.t2 digital_0.S3.t11 DVSS.t3 sky130_fd_pr__nfet_01v8_lvt ad=0.58 pd=4.29 as=0.58 ps=4.29 w=4 l=1
X207 pmos_startup_0.D2.t4 pmos_startup_0.D2.t2 pmos_startup_0.D2.t3 digital_0.VDDE.t12 sky130_fd_pr__pfet_01v8 ad=0.29 pd=2.58 as=0 ps=0 w=1 l=0.15
X208 differential_pair_0.S.t8 differential_pair_0.S.t6 differential_pair_0.S.t7 AVSS.t15 sky130_fd_pr__nfet_01v8 ad=0.29 pd=2.58 as=0 ps=0 w=1 l=0.15
X209 digital_0.D3.t11 TRIM3.t2 digital_0.S3.t0 DVSS.t0 sky130_fd_pr__nfet_01v8_lvt ad=0.58 pd=4.29 as=0.58 ps=4.29 w=4 l=1
X210 IPTAT.t4 IPTAT.t2 IPTAT.t3 digital_0.VDDE.t8 sky130_fd_pr__pfet_01v8 ad=0.29 pd=2.58 as=0 ps=0 w=1 l=0.15
X211 digital_0.S2.t30 digital_0.S3.t23 AVSS.t10 sky130_fd_pr__res_high_po_0p35 l=8.4
X212 digital_0.S1.t39 TRIM0.t2 bjt_0.B.t31 DVSS.t0 sky130_fd_pr__nfet_01v8_lvt ad=0.58 pd=4.29 as=0.58 ps=4.29 w=4 l=1
X213 digital_0.VDDE.t69 resistor_op_tt_0.C.t18 pmos_iptat_0.G.t19 digital_0.VDDE.t32 sky130_fd_pr__pfet_01v8 ad=0.145 pd=1.29 as=0.145 ps=1.29 w=1 l=10
X214 pmos_current_bgr_2_0.D4.t8 pmos_current_bgr_2_0.D4.t6 pmos_current_bgr_2_0.D4.t7 AVSS.t5 sky130_fd_pr__nfet_01v8 ad=0.29 pd=2.58 as=0 ps=0 w=1 l=0.15
X215 digital_0.S3.t16 digital_0.S3.t15 digital_0.S3.t16 DVSS.t0 sky130_fd_pr__nfet_01v8_lvt ad=0.58 pd=4.29 as=0 ps=0 w=4 l=0.15
X216 a_220_15663.t0 AVSS.t31 AVSS.t30 sky130_fd_pr__res_high_po_0p35 l=4.5
X217 a_3789_20263.t0 a_8125_20263.t0 AVSS.t12 sky130_fd_pr__res_high_po_0p35 l=17
X218 resistor_op_tt_0.C.t12 resistor_op_tt_0.C.t10 resistor_op_tt_0.C.t11 AVSS.t27 sky130_fd_pr__nfet_01v8 ad=0.261 pd=2.38 as=0 ps=0 w=0.9 l=0.15
X219 a_n547_21495.t1 a_3789_21661.t0 AVSS.t11 sky130_fd_pr__res_high_po_0p35 l=17
X220 AVSS.t59 AVSS.t60 sky130_fd_pr__cap_mim_m3_1 l=17 w=17
X221 AVSS.t57 AVSS.t58 sky130_fd_pr__cap_mim_m3_1 l=17 w=17
X222 AVSS.t78 AVSS.t77 bjt_0.B.t23 sky130_fd_pr__pnp_05v5_W3p40L3p40
**devattr s=462400,2720 d=11121552,65696
X223 a_n547_20097.t0 a_3789_20097.t0 AVSS.t36 sky130_fd_pr__res_high_po_0p35 l=17
X224 digital_0.S2.t23 digital_0.S1.t36 AVSS.t10 sky130_fd_pr__res_high_po_0p35 l=8.4
X225 a_n13555_21827.t0 a_n9219_21993.t0 AVSS.t16 sky130_fd_pr__res_high_po_0p35 l=17
X226 bjt_0.B.t30 TRIM0.t3 digital_0.S1.t38 DVSS.t0 sky130_fd_pr__nfet_01v8_lvt ad=0.58 pd=4.29 as=0.58 ps=4.29 w=4 l=1
X227 AVSS.t90 AVSS.t88 AVSS.t89 sky130_fd_pr__pnp_05v5_W3p40L3p40
**devattr s=462400,2720 d=11121552,65696
X228 VBGSC.t2 VBGSC.t0 VBGSC.t1 DVSS.t4 sky130_fd_pr__nfet_01v8_lvt ad=0.145 pd=1.29 as=0 ps=0 w=1 l=0.15
X229 VBGTC.t2 VBGTC.t0 VBGTC.t1 DVSS.t7 sky130_fd_pr__nfet_01v8_lvt ad=0.145 pd=1.29 as=0 ps=0 w=1 l=0.15
X230 a_n17355_21661.t1 a_n13555_21827.t1 AVSS.t17 sky130_fd_pr__res_high_po_0p35 l=17
X231 AVSS.t18 a_n13555_22491.t0 AVSS.t17 sky130_fd_pr__res_high_po_0p35 l=17
X232 a_3789_21495.t0 a_8125_21329.t0 AVSS.t11 sky130_fd_pr__res_high_po_0p35 l=17
X233 AVSS.t118 pmos_current_bgr_2_0.D3.t3 pmos_current_bgr_2_0.D3.t4 AVSS.t117 sky130_fd_pr__nfet_01v8 ad=0.29 pd=2.58 as=0.29 ps=2.58 w=1 l=20
X234 a_220_15165.t3 resistor_op_tt_0.A.t3 AVSS.t130 sky130_fd_pr__res_high_po_0p35 l=4.5
X235 a_n13555_21163.t0 a_n9219_21329.t0 AVSS.t16 sky130_fd_pr__res_high_po_0p35 l=17
X236 a_3789_20097.t1 a_8125_19931.t1 AVSS.t36 sky130_fd_pr__res_high_po_0p35 l=17
X237 digital_0.SVBGTC.t0 VENA.t2 VBGTC.t6 DVSS.t9 sky130_fd_pr__nfet_01v8_lvt ad=0.145 pd=1.29 as=0.145 ps=1.29 w=1 l=1
X238 a_n4883_21495.t1 a_3789_21495.t1 AVSS.t40 sky130_fd_pr__res_high_po_0p35 l=17
X239 bjt_0.B.t34 digital_0.S1.t54 AVSS.t10 sky130_fd_pr__res_high_po_0p35 l=8.4
X240 digital_0.VDDE.t22 pmos_iptat_0.G.t26 pmos_current_bgr_0.D1.t2 digital_0.VDDE.t21 sky130_fd_pr__pfet_01v8 ad=0.145 pd=1.29 as=0.145 ps=1.29 w=1 l=10
X241 pmos_current_bgr_2_0.D3.t2 pmos_current_bgr_2_0.D3.t1 AVSS.t116 AVSS.t5 sky130_fd_pr__nfet_01v8 ad=0.29 pd=2.58 as=0.29 ps=2.58 w=1 l=20
X242 AVSS.t52 a_220_15165.t2 AVSS.t51 sky130_fd_pr__res_high_po_0p35 l=4.5
X243 digital_0.S1.t16 bjt_0.B.t7 AVSS.t10 sky130_fd_pr__res_high_po_0p35 l=8.4
X244 digital_0.S2.t14 digital_0.S2.t13 digital_0.S2.t14 DVSS.t3 sky130_fd_pr__nfet_01v8_lvt ad=0.58 pd=4.29 as=0 ps=0 w=4 l=0.15
X245 differential_pair_0.D4.t7 differential_pair_0.D4.t6 differential_pair_0.D4.t7 AVSS.t27 sky130_fd_pr__nfet_01v8 ad=0.1305 pd=1.19 as=0 ps=0 w=0.9 l=0.15
X246 pmos_startup_0.D4.t2 pmos_startup_0.D2.t5 digital_0.VDDE.t15 digital_0.VDDE.t14 sky130_fd_pr__pfet_01v8 ad=0.145 pd=1.29 as=0.145 ps=1.29 w=1 l=10
X247 pmos_iptat_0.G.t5 pmos_iptat_0.G.t4 pmos_iptat_0.G.t5 digital_0.VDDE.t4 sky130_fd_pr__pfet_01v8 ad=0.145 pd=1.29 as=0 ps=0 w=1 l=0.15
X248 bjt_0.B.t4 digital_0.S1.t8 AVSS.t10 sky130_fd_pr__res_high_po_0p35 l=8.4
X249 a_3789_21661.t1 a_8125_21163.t1 AVSS.t40 sky130_fd_pr__res_high_po_0p35 l=17
X250 digital_0.S1.t34 digital_0.S1.t35 AVSS.t10 sky130_fd_pr__res_high_po_0p35 l=8.4
X251 bjt_0.B.t3 digital_0.S1.t3 AVSS.t10 sky130_fd_pr__res_high_po_0p35 l=8.4
X252 pmos_current_bgr_0.D1.t1 pmos_iptat_0.G.t23 digital_0.VDDE.t66 digital_0.VDDE.t45 sky130_fd_pr__pfet_01v8 ad=0.145 pd=1.29 as=0.145 ps=1.29 w=1 l=10
X253 resistor_op_tt_0.C.t9 resistor_op_tt_0.C.t8 resistor_op_tt_0.C.t9 digital_0.VDDE.t25 sky130_fd_pr__pfet_01v8 ad=0.145 pd=1.29 as=0 ps=0 w=1 l=0.15
X254 AVSS.t76 AVSS.t75 bjt_0.B.t22 sky130_fd_pr__pnp_05v5_W3p40L3p40
**devattr s=462400,2720 d=11121552,65696
X255 bjt_0.B.t0 bjt_0.B.t1 AVSS.t10 sky130_fd_pr__res_high_po_0p35 l=8.4
X256 bjt_0.B.t13 bjt_0.B.t14 AVSS.t10 sky130_fd_pr__res_high_po_0p35 l=8.4
X257 pmos_current_bgr_2_0.D4.t3 pmos_current_bgr_2_0.D4.t2 digital_0.VDDE.t1 digital_0.VDDE.t0 sky130_fd_pr__pfet_01v8 ad=0.145 pd=1.29 as=0.145 ps=1.29 w=1 l=10
X258 AVSS.t26 a_220_15165.t1 AVSS.t25 sky130_fd_pr__res_high_po_0p35 l=4.5
X259 resistor_op_tt_0.D.t3 a_220_14999.t3 AVSS.t128 sky130_fd_pr__res_high_po_0p35 l=4.5
X260 a_n9219_22159.t0 a_n4883_22325.t1 AVSS.t6 sky130_fd_pr__res_high_po_0p35 l=17
X261 a_n4883_21329.t0 a_n547_21163.t0 AVSS.t9 sky130_fd_pr__res_high_po_0p35 l=17
X262 a_n4883_20997.t1 a_n547_20997.t1 AVSS.t9 sky130_fd_pr__res_high_po_0p35 l=17
X263 a_n13019_20097.t1 a_n9219_20263.t1 AVSS.t16 sky130_fd_pr__res_high_po_0p35 l=17
X264 digital_0.S1.t7 digital_0.S2.t4 AVSS.t10 sky130_fd_pr__res_high_po_0p35 l=8.4
X265 AVSS.t80 AVSS.t87 AVSS.t80 sky130_fd_pr__pnp_05v5_W3p40L3p40
**devattr s=462400,2720 d=11121552,65696
X266 digital_0.S1.t20 digital_0.S2.t8 AVSS.t10 sky130_fd_pr__res_high_po_0p35 l=8.4
X267 a_220_14999.t0 resistor_op_tt_0.C.t0 AVSS.t24 sky130_fd_pr__res_high_po_0p35 l=4.5
X268 differential_pair_0.D4.t3 differential_pair_0.D4.t2 digital_0.VDDE.t7 digital_0.VDDE.t0 sky130_fd_pr__pfet_01v8 ad=0.145 pd=1.29 as=0.145 ps=1.29 w=1 l=10
X269 digital_0.S1.t48 digital_0.S1.t47 digital_0.S1.t48 DVSS.t0 sky130_fd_pr__nfet_01v8_lvt ad=0.58 pd=4.29 as=0 ps=0 w=4 l=0.15
X270 AVSS.t78 AVSS.t112 bjt_0.B.t21 sky130_fd_pr__pnp_05v5_W3p40L3p40
**devattr s=462400,2720 d=11121552,65696
X271 digital_0.S3.t4 digital_0.S2.t3 AVSS.t10 sky130_fd_pr__res_high_po_0p35 l=8.4
X272 pmos_iptat_0.G.t18 resistor_op_tt_0.C.t19 digital_0.VDDE.t71 digital_0.VDDE.t19 sky130_fd_pr__pfet_01v8 ad=0.145 pd=1.29 as=0.145 ps=1.29 w=1 l=10
X273 digital_0.S3.t9 TRIM2.t3 digital_0.S2.t11 DVSS.t3 sky130_fd_pr__nfet_01v8_lvt ad=0.58 pd=4.29 as=0.58 ps=4.29 w=4 l=1
X274 a_n13555_21495.t1 a_n9219_21661.t1 AVSS.t16 sky130_fd_pr__res_high_po_0p35 l=17
X275 pmos_current_bgr_2_0.D3.t10 pmos_current_bgr_2_0.D3.t8 pmos_current_bgr_2_0.D3.t9 AVSS.t5 sky130_fd_pr__nfet_01v8 ad=0.29 pd=2.58 as=0 ps=0 w=1 l=0.15
X276 a_n9219_22325.t0 a_n4883_22159.t0 AVSS.t6 sky130_fd_pr__res_high_po_0p35 l=17
X277 a_n13019_20097.t0 a_n9219_20097.t0 AVSS.t16 sky130_fd_pr__res_high_po_0p35 l=17
X278 a_n9219_19931.t0 a_n4883_19931.t0 AVSS.t6 sky130_fd_pr__res_high_po_0p35 l=17
X279 AVSS.t80 AVSS.t86 AVSS.t80 sky130_fd_pr__pnp_05v5_W3p40L3p40
**devattr s=462400,2720 d=11121552,65696
X280 AVSS.t76 AVSS.t111 bjt_0.B.t20 sky130_fd_pr__pnp_05v5_W3p40L3p40
**devattr s=462400,2720 d=11121552,65696
X281 AVSS.t115 pmos_current_bgr_2_0.D3.t22 differential_pair_0.S.t4 AVSS.t47 sky130_fd_pr__nfet_01v8 ad=0.29 pd=2.58 as=0.29 ps=2.58 w=1 l=20
X282 digital_0.VDDE.t33 pmos_iptat_0.G.t25 VREF.t2 digital_0.VDDE.t32 sky130_fd_pr__pfet_01v8 ad=0.145 pd=1.29 as=0.145 ps=1.29 w=1 l=10