* PEX produced on Rab 19 Jun 2024 02:46:55  WIB using ./iic-pex.sh with m=2 and s=1
* NGSPICE file created from bgr_op5_block_rev1.ext - technology: sky130A

.subckt bgr_op5_block_rev1 AVDD DVDD ENA VREF VBGTC TRIM3 IPTAT VENA TRIM1 DVSS TRIM0
+ TRIM2 AVSS VBGSC
X0 pmos_current_bgr_0.D2 digital_0.vdde digital_0.vdde digital_0.vdde sky130_fd_pr__pfet_01v8 ad=0.145 pd=1.29 as=0.29 ps=2.58 w=1 l=0.15
X1 AVDD ENA digital_0.vdde DVDD sky130_fd_pr__pfet_01v8 ad=0.145 pd=1.29 as=0.145 ps=1.29 w=1 l=2
X2 pmos_current_bgr_2_0.D4 AVSS AVSS AVSS sky130_fd_pr__nfet_01v8 ad=0.29 pd=2.58 as=0.29 ps=2.58 w=1 l=0.15
X3 DVDD DVDD digital_0.vdde DVDD sky130_fd_pr__pfet_01v8 ad=0.29 pd=2.58 as=0.145 ps=1.29 w=1 l=0.15
X4 digital_0.S1 TRIM1 digital_0.S2 DVSS sky130_fd_pr__nfet_01v8_lvt ad=0.58 pd=4.29 as=0.58 ps=4.29 w=4 l=1
X5 pmos_iptat_0.G resistor_op_tt_0.C digital_0.vdde digital_0.vdde sky130_fd_pr__pfet_01v8 ad=0.145 pd=1.29 as=0.145 ps=1.29 w=1 l=10
X6 AVSS AVSS bjt_0.B sky130_fd_pr__pnp_05v5_W3p40L3p40
X7 AVSS AVSS AVSS sky130_fd_pr__pnp_05v5_W3p40L3p40
X8 pmos_startup_0.D3 pmos_startup_0.D4 AVSS AVSS sky130_fd_pr__nfet_01v8 ad=0.145 pd=1.29 as=0.145 ps=1.29 w=1 l=1
X9 resistor_op_tt_0.A AVSS AVSS sky130_fd_pr__res_high_po_0p35 l=3
X10 digital_0.vdde pmos_current_bgr_2_0.D4 pmos_current_bgr_2_0.D4 digital_0.vdde sky130_fd_pr__pfet_01v8 ad=0.145 pd=1.29 as=0.145 ps=1.29 w=1 l=10
X11 resistor_op_tt_0.D a_968_14999# AVSS sky130_fd_pr__res_high_po_0p35 l=3
X12 a_n4883_22159# a_n547_22325# AVSS sky130_fd_pr__res_high_po_0p35 l=17
X13 a_n17355_21661# a_n13555_21661# AVSS sky130_fd_pr__res_high_po_0p35 l=17
X14 digital_0.S1 digital_0.S1 AVSS sky130_fd_pr__res_high_po_0p35 l=8.8
X15 digital_0.S1 digital_0.S1 AVSS sky130_fd_pr__res_high_po_0p35 l=8.8
X16 pmos_current_bgr_2_0.D4 digital_0.vdde digital_0.vdde digital_0.vdde sky130_fd_pr__pfet_01v8 ad=0.145 pd=1.29 as=0.29 ps=2.58 w=1 l=0.15
X17 pmos_startup_0.D3 AVSS AVSS AVSS sky130_fd_pr__nfet_01v8 ad=0.145 pd=1.29 as=0.29 ps=2.58 w=1 l=0.15
X18 digital_0.vdde ENA AVDD DVDD sky130_fd_pr__pfet_01v8 ad=0.145 pd=1.29 as=0.145 ps=1.29 w=1 l=2
X19 digital_0.vdde digital_0.vdde pmos_startup_0.D3 digital_0.vdde sky130_fd_pr__pfet_01v8 ad=0.29 pd=2.58 as=0.145 ps=1.29 w=1 l=0.15
X20 a_n13555_21329# a_n9219_21163# AVSS sky130_fd_pr__res_high_po_0p35 l=17
X21 AVSS AVSS differential_pair_0.D4 AVSS sky130_fd_pr__nfet_01v8 ad=0.232 pd=2.18 as=0.116 ps=1.09 w=0.8 l=0.15
X22 a_n13555_20997# a_n9219_20997# AVSS sky130_fd_pr__res_high_po_0p35 l=17
X23 AVSS AVSS pmos_startup_0.D3 AVSS sky130_fd_pr__nfet_01v8 ad=0.29 pd=2.58 as=0.145 ps=1.29 w=1 l=0.15
X24 a_968_14833# AVSS AVSS sky130_fd_pr__res_high_po_0p35 l=3
X25 a_n9219_19433# a_n4883_19433# AVSS sky130_fd_pr__res_high_po_0p35 l=17
X26 pmos_current_bgr_2_0.D3 pmos_current_bgr_2_0.D3 AVSS AVSS sky130_fd_pr__nfet_01v8 ad=0.29 pd=2.58 as=0.29 ps=2.58 w=1 l=20
X27 DVSS DVSS VBGSC DVSS sky130_fd_pr__nfet_01v8_lvt ad=0.29 pd=2.58 as=0.145 ps=1.29 w=1 l=0.15
X28 VBGTC VENA digital_0.svbgtc DVSS sky130_fd_pr__nfet_01v8_lvt ad=0.145 pd=1.29 as=0.145 ps=1.29 w=1 l=1
X29 differential_pair_0.D4 AVSS AVSS AVSS sky130_fd_pr__nfet_01v8 ad=0.116 pd=1.09 as=0.232 ps=2.18 w=0.8 l=0.15
X30 a_n4883_22325# a_n547_22159# AVSS sky130_fd_pr__res_high_po_0p35 l=17
X31 a_n17355_21495# a_n13555_21495# AVSS sky130_fd_pr__res_high_po_0p35 l=17
X32 a_n9219_20595# a_n4883_20595# AVSS sky130_fd_pr__res_high_po_0p35 l=17
X33 a_n4883_19931# a_n547_19931# AVSS sky130_fd_pr__res_high_po_0p35 l=17
X34 digital_0.S1 digital_0.S1 AVSS sky130_fd_pr__res_high_po_0p35 l=8.8
X35 digital_0.S1 bjt_0.B AVSS sky130_fd_pr__res_high_po_0p35 l=8.8
X36 resistor_op_tt_0.D pmos_iptat_0.G sky130_fd_pr__cap_mim_m3_1 l=17 w=17
X37 bjt_0.B digital_0.S1 AVSS sky130_fd_pr__res_high_po_0p35 l=8.8
X38 IPTAT digital_0.vdde digital_0.vdde digital_0.vdde sky130_fd_pr__pfet_01v8 ad=0.145 pd=1.29 as=0.29 ps=2.58 w=1 l=0.15
X39 digital_0.vdde digital_0.vdde digital_0.vdde digital_0.vdde sky130_fd_pr__pfet_01v8 ad=0.145 pd=1.29 as=13.63 ps=121.26 w=1 l=10
X40 AVSS pmos_current_bgr_2_0.D3 differential_pair_0.S AVSS sky130_fd_pr__nfet_01v8 ad=0.29 pd=2.58 as=0.29 ps=2.58 w=1 l=20
X41 a_n547_22159# a_3789_22325# AVSS sky130_fd_pr__res_high_po_0p35 l=17
X42 digital_0.vdde digital_0.vdde pmos_current_bgr_0.D2 digital_0.vdde sky130_fd_pr__pfet_01v8 ad=0.29 pd=2.58 as=0.145 ps=1.29 w=1 l=0.15
X43 VREF pmos_iptat_0.G digital_0.vdde digital_0.vdde sky130_fd_pr__pfet_01v8 ad=0.145 pd=1.29 as=0.145 ps=1.29 w=1 l=10
X44 AVSS a_968_14833# AVSS sky130_fd_pr__res_high_po_0p35 l=3
X45 a_n9219_21827# digital_0.svbgsc AVSS sky130_fd_pr__res_high_po_0p35 l=17
X46 a_n4883_19765# a_n547_19765# AVSS sky130_fd_pr__res_high_po_0p35 l=17
X47 digital_0.S2 digital_0.S3 AVSS sky130_fd_pr__res_high_po_0p35 l=8.8
X48 pmos_iptat_0.G AVSS AVSS AVSS sky130_fd_pr__nfet_01v8 ad=0.29 pd=2.58 as=0.29 ps=2.58 w=1 l=0.15
X49 AVSS AVSS sky130_fd_pr__cap_mim_m3_1 l=17 w=17
X50 a_n4883_20429# a_n547_20429# AVSS sky130_fd_pr__res_high_po_0p35 l=17
X51 AVSS AVSS sky130_fd_pr__cap_mim_m3_1 l=17 w=17
X52 DVSS DVSS digital_0.D3 DVSS sky130_fd_pr__nfet_01v8_lvt ad=1.16 pd=8.58 as=0.58 ps=4.29 w=4 l=0.15
X53 digital_0.vdde pmos_startup_0.D2 pmos_startup_0.D4 digital_0.vdde sky130_fd_pr__pfet_01v8 ad=0.145 pd=1.29 as=0.145 ps=1.29 w=1 l=10
X54 a_3789_22159# a_8125_21993# AVSS sky130_fd_pr__res_high_po_0p35 l=17
X55 digital_0.S3 DVSS DVSS DVSS sky130_fd_pr__nfet_01v8_lvt ad=0.58 pd=4.29 as=1.16 ps=8.58 w=4 l=0.15
X56 a_n9219_21163# a_n4883_21329# AVSS sky130_fd_pr__res_high_po_0p35 l=17
X57 DVSS DVSS digital_0.S3 DVSS sky130_fd_pr__nfet_01v8_lvt ad=1.16 pd=8.58 as=0.58 ps=4.29 w=4 l=0.15
X58 AVSS AVSS bjt_0.B sky130_fd_pr__pnp_05v5_W3p40L3p40
X59 a_n547_22325# a_3789_22159# AVSS sky130_fd_pr__res_high_po_0p35 l=17
X60 a_n547_19931# a_3789_19931# AVSS sky130_fd_pr__res_high_po_0p35 l=17
X61 resistor_op_tt_0.C differential_pair_0.D4 digital_0.vdde digital_0.vdde sky130_fd_pr__pfet_01v8 ad=0.145 pd=1.29 as=0.145 ps=1.29 w=1 l=10
X62 VBGTC DVSS DVSS DVSS sky130_fd_pr__nfet_01v8_lvt ad=0.145 pd=1.29 as=0.29 ps=2.58 w=1 l=0.15
X63 AVSS AVSS AVSS sky130_fd_pr__pnp_05v5_W3p40L3p40
X64 AVSS AVSS pmos_current_bgr_2_0.D3 AVSS sky130_fd_pr__nfet_01v8 ad=0.29 pd=2.58 as=0.29 ps=2.58 w=1 l=0.15
X65 a_n4883_19599# a_n547_19599# AVSS sky130_fd_pr__res_high_po_0p35 l=17
X66 pmos_startup_0.D3 pmos_startup_0.D4 AVSS AVSS sky130_fd_pr__nfet_01v8 ad=0.145 pd=1.29 as=0.145 ps=1.29 w=1 l=1
X67 AVSS AVSS AVSS sky130_fd_pr__pnp_05v5_W3p40L3p40
X68 a_n4883_21661# digital_0.D3 AVSS sky130_fd_pr__res_high_po_0p35 l=17
X69 digital_0.S2 digital_0.S1 AVSS sky130_fd_pr__res_high_po_0p35 l=8.8
X70 pmos_iptat_0.G digital_0.vdde digital_0.vdde digital_0.vdde sky130_fd_pr__pfet_01v8 ad=0.145 pd=1.29 as=0.29 ps=2.58 w=1 l=0.15
X71 VBGSC VENA digital_0.svbgsc DVSS sky130_fd_pr__nfet_01v8_lvt ad=0.145 pd=1.29 as=0.145 ps=1.29 w=1 l=1
X72 digital_0.svbgtc VENA VBGTC DVSS sky130_fd_pr__nfet_01v8_lvt ad=0.145 pd=1.29 as=0.145 ps=1.29 w=1 l=1
X73 a_n4883_22491# a_n547_22491# AVSS sky130_fd_pr__res_high_po_0p35 l=17
X74 a_3789_22325# a_8125_21827# AVSS sky130_fd_pr__res_high_po_0p35 l=17
X75 a_3789_19931# a_8125_19931# AVSS sky130_fd_pr__res_high_po_0p35 l=17
X76 pmos_startup_0.D3 AVSS AVSS AVSS sky130_fd_pr__nfet_01v8 ad=0.145 pd=1.29 as=0.29 ps=2.58 w=1 l=0.15
X77 AVSS AVSS sky130_fd_pr__cap_mim_m3_1 l=17 w=17
X78 digital_0.S3 TRIM2 digital_0.S2 DVSS sky130_fd_pr__nfet_01v8_lvt ad=0.58 pd=4.29 as=0.58 ps=4.29 w=4 l=1
X79 pmos_current_bgr_0.D2 pmos_iptat_0.G digital_0.vdde digital_0.vdde sky130_fd_pr__pfet_01v8 ad=0.145 pd=1.29 as=0.145 ps=1.29 w=1 l=10
X80 differential_pair_0.S pmos_current_bgr_2_0.D3 AVSS AVSS sky130_fd_pr__nfet_01v8 ad=0.29 pd=2.58 as=0.29 ps=2.58 w=1 l=20
X81 a_n547_19765# a_3789_19765# AVSS sky130_fd_pr__res_high_po_0p35 l=17
X82 digital_0.vdde pmos_iptat_0.G pmos_current_bgr_0.D2 digital_0.vdde sky130_fd_pr__pfet_01v8 ad=0.145 pd=1.29 as=0.145 ps=1.29 w=1 l=10
X83 AVSS AVSS pmos_startup_0.D3 AVSS sky130_fd_pr__nfet_01v8 ad=0.29 pd=2.58 as=0.145 ps=1.29 w=1 l=0.15
X84 AVSS AVSS AVSS sky130_fd_pr__pnp_05v5_W3p40L3p40
X85 differential_pair_0.plus a_n13555_21163# AVSS sky130_fd_pr__res_high_po_0p35 l=17
X86 a_n547_20429# a_3789_20429# AVSS sky130_fd_pr__res_high_po_0p35 l=17
X87 AVSS AVSS sky130_fd_pr__cap_mim_m3_1 l=17 w=17
X88 digital_0.S2 DVSS DVSS DVSS sky130_fd_pr__nfet_01v8_lvt ad=0.58 pd=4.29 as=1.16 ps=8.58 w=4 l=0.15
X89 AVSS a_n13555_20997# AVSS sky130_fd_pr__res_high_po_0p35 l=17
X90 a_n9219_20263# a_n4883_20263# AVSS sky130_fd_pr__res_high_po_0p35 l=17
X91 bjt_0.B digital_0.S1 AVSS sky130_fd_pr__res_high_po_0p35 l=8.8
X92 digital_0.S1 bjt_0.B AVSS sky130_fd_pr__res_high_po_0p35 l=8.8
X93 VBGSC DVSS DVSS DVSS sky130_fd_pr__nfet_01v8_lvt ad=0.145 pd=1.29 as=0.29 ps=2.58 w=1 l=0.15
X94 DVSS DVSS digital_0.S2 DVSS sky130_fd_pr__nfet_01v8_lvt ad=1.16 pd=8.58 as=0.58 ps=4.29 w=4 l=0.15
X95 AVSS AVSS bjt_0.B sky130_fd_pr__pnp_05v5_W3p40L3p40
X96 differential_pair_0.S differential_pair_0.plus resistor_op_tt_0.C AVSS sky130_fd_pr__nfet_01v8 ad=0.116 pd=1.09 as=0.116 ps=1.09 w=0.8 l=10
X97 a_3789_19765# a_8125_19599# AVSS sky130_fd_pr__res_high_po_0p35 l=17
X98 digital_0.vdde differential_pair_0.D4 differential_pair_0.D4 digital_0.vdde sky130_fd_pr__pfet_01v8 ad=0.145 pd=1.29 as=0.145 ps=1.29 w=1 l=10
X99 a_3789_20429# a_8125_20263# AVSS sky130_fd_pr__res_high_po_0p35 l=17
X100 differential_pair_0.D4 digital_0.vdde digital_0.vdde digital_0.vdde sky130_fd_pr__pfet_01v8 ad=0.145 pd=1.29 as=0.29 ps=2.58 w=1 l=0.15
X101 digital_0.S3 TRIM3 digital_0.D3 DVSS sky130_fd_pr__nfet_01v8_lvt ad=0.58 pd=4.29 as=0.58 ps=4.29 w=4 l=1
X102 a_n547_19599# a_3789_19599# AVSS sky130_fd_pr__res_high_po_0p35 l=17
X103 AVSS pmos_startup_0.D4 pmos_startup_0.D3 AVSS sky130_fd_pr__nfet_01v8 ad=0.145 pd=1.29 as=0.145 ps=1.29 w=1 l=1
X104 digital_0.S2 TRIM2 digital_0.S3 DVSS sky130_fd_pr__nfet_01v8_lvt ad=0.58 pd=4.29 as=0.58 ps=4.29 w=4 l=1
X105 a_n547_21993# a_3789_21827# AVSS sky130_fd_pr__res_high_po_0p35 l=17
X106 digital_0.S2 TRIM1 digital_0.S1 DVSS sky130_fd_pr__nfet_01v8_lvt ad=0.58 pd=4.29 as=0.58 ps=4.29 w=4 l=1
X107 a_n13555_22159# a_n9219_22325# AVSS sky130_fd_pr__res_high_po_0p35 l=17
X108 differential_pair_0.plus a_n4883_21661# AVSS sky130_fd_pr__res_high_po_0p35 l=17
X109 digital_0.S1 TRIM0 bjt_0.B DVSS sky130_fd_pr__nfet_01v8_lvt ad=0.58 pd=4.29 as=0.58 ps=4.29 w=4 l=1
X110 a_n547_22491# a_3789_22491# AVSS sky130_fd_pr__res_high_po_0p35 l=17
X111 a_n9219_20097# a_n4883_20097# AVSS sky130_fd_pr__res_high_po_0p35 l=17
X112 a_n4883_19433# a_n547_19433# AVSS sky130_fd_pr__res_high_po_0p35 l=17
X113 digital_0.S1 digital_0.S2 AVSS sky130_fd_pr__res_high_po_0p35 l=8.8
X114 digital_0.vdde pmos_iptat_0.G VREF digital_0.vdde sky130_fd_pr__pfet_01v8 ad=0.145 pd=1.29 as=0.145 ps=1.29 w=1 l=10
X115 digital_0.vdde digital_0.vdde pmos_current_bgr_2_0.D4 digital_0.vdde sky130_fd_pr__pfet_01v8 ad=0.29 pd=2.58 as=0.145 ps=1.29 w=1 l=0.15
X116 resistor_op_tt_0.D pmos_iptat_0.G sky130_fd_pr__cap_mim_m3_1 l=17 w=17
X117 a_3789_19599# a_8125_19599# AVSS sky130_fd_pr__res_high_po_0p35 l=17
X118 AVSS pmos_current_bgr_2_0.D3 pmos_current_bgr_2_0.D3 AVSS sky130_fd_pr__nfet_01v8 ad=0.29 pd=2.58 as=0.29 ps=2.58 w=1 l=20
X119 digital_0.svbgtc a_8125_21827# AVSS sky130_fd_pr__res_high_po_0p35 l=17
X120 a_n4883_20595# a_n547_20595# AVSS sky130_fd_pr__res_high_po_0p35 l=17
X121 digital_0.S1 digital_0.S1 AVSS sky130_fd_pr__res_high_po_0p35 l=8.8
X122 AVSS AVSS differential_pair_0.S AVSS sky130_fd_pr__nfet_01v8 ad=0.29 pd=2.58 as=0.29 ps=2.58 w=1 l=0.15
X123 digital_0.vdde pmos_iptat_0.G IPTAT digital_0.vdde sky130_fd_pr__pfet_01v8 ad=0.145 pd=1.29 as=0.145 ps=1.29 w=1 l=10
X124 digital_0.vdde DVDD DVDD DVDD sky130_fd_pr__pfet_01v8 ad=0.145 pd=1.29 as=0.29 ps=2.58 w=1 l=0.15
X125 bjt_0.B TRIM0 digital_0.S1 DVSS sky130_fd_pr__nfet_01v8_lvt ad=0.58 pd=4.29 as=0.58 ps=4.29 w=4 l=1
X126 digital_0.S1 DVSS DVSS DVSS sky130_fd_pr__nfet_01v8_lvt ad=0.58 pd=4.29 as=1.16 ps=8.58 w=4 l=0.15
X127 AVSS AVSS AVSS sky130_fd_pr__pnp_05v5_W3p40L3p40
X128 a_3789_22491# AVSS AVSS sky130_fd_pr__res_high_po_0p35 l=17
X129 bjt_0.B digital_0.S1 AVSS sky130_fd_pr__res_high_po_0p35 l=8.8
X130 digital_0.vdde digital_0.vdde digital_0.vdde digital_0.vdde sky130_fd_pr__pfet_01v8 ad=0.145 pd=1.29 as=0 ps=0 w=1 l=10
X131 a_n13555_22325# a_n9219_22159# AVSS sky130_fd_pr__res_high_po_0p35 l=17
X132 a_n9219_21661# a_n4883_21495# AVSS sky130_fd_pr__res_high_po_0p35 l=17
X133 a_n13019_19765# a_n9219_19931# AVSS sky130_fd_pr__res_high_po_0p35 l=17
X134 digital_0.S3 digital_0.S2 AVSS sky130_fd_pr__res_high_po_0p35 l=8.8
X135 digital_0.vdde digital_0.vdde differential_pair_0.D4 digital_0.vdde sky130_fd_pr__pfet_01v8 ad=0.29 pd=2.58 as=0.145 ps=1.29 w=1 l=0.15
X136 AVSS AVSS AVSS sky130_fd_pr__pnp_05v5_W3p40L3p40
X137 digital_0.vdde digital_0.vdde digital_0.vdde digital_0.vdde sky130_fd_pr__pfet_01v8 ad=0.145 pd=1.29 as=0 ps=0 w=1 l=0.15
X138 pmos_iptat_0.G digital_0.vdde digital_0.vdde digital_0.vdde sky130_fd_pr__pfet_01v8 ad=0.145 pd=1.29 as=0.29 ps=2.58 w=1 l=0.15
X139 a_n9219_21993# a_n547_21993# AVSS sky130_fd_pr__res_high_po_0p35 l=17
X140 pmos_startup_0.D3 pmos_startup_0.D3 digital_0.vdde digital_0.vdde sky130_fd_pr__pfet_01v8 ad=0.145 pd=1.29 as=0.145 ps=1.29 w=1 l=10
X141 a_n547_19433# a_3789_19433# AVSS sky130_fd_pr__res_high_po_0p35 l=17
X142 digital_0.S1 digital_0.S2 AVSS sky130_fd_pr__res_high_po_0p35 l=8.8
X143 digital_0.vdde digital_0.vdde IPTAT digital_0.vdde sky130_fd_pr__pfet_01v8 ad=0.29 pd=2.58 as=0.145 ps=1.29 w=1 l=0.15
X144 AVSS AVSS sky130_fd_pr__cap_mim_m3_1 l=17 w=17
X145 a_n13019_19765# a_n9219_19765# AVSS sky130_fd_pr__res_high_po_0p35 l=17
X146 AVSS AVSS AVSS sky130_fd_pr__pnp_05v5_W3p40L3p40
X147 AVSS AVSS AVSS sky130_fd_pr__pnp_05v5_W3p40L3p40
X148 AVSS a_n9219_20429# AVSS sky130_fd_pr__res_high_po_0p35 l=17
X149 digital_0.S1 bjt_0.B AVSS sky130_fd_pr__res_high_po_0p35 l=8.8
X150 differential_pair_0.S AVSS AVSS AVSS sky130_fd_pr__nfet_01v8 ad=0.29 pd=2.58 as=0.29 ps=2.58 w=1 l=0.15
X151 a_n4883_21163# a_n547_21329# AVSS sky130_fd_pr__res_high_po_0p35 l=17
X152 a_n547_20595# a_3789_20595# AVSS sky130_fd_pr__res_high_po_0p35 l=17
X153 bjt_0.B digital_0.S1 AVSS sky130_fd_pr__res_high_po_0p35 l=8.8
X154 bjt_0.B bjt_0.B AVSS sky130_fd_pr__res_high_po_0p35 l=8.8
X155 IPTAT pmos_iptat_0.G digital_0.vdde digital_0.vdde sky130_fd_pr__pfet_01v8 ad=0.145 pd=1.29 as=0.145 ps=1.29 w=1 l=10
X156 AVSS AVSS AVSS sky130_fd_pr__pnp_05v5_W3p40L3p40
X157 AVSS AVSS AVSS sky130_fd_pr__pnp_05v5_W3p40L3p40
X158 digital_0.S1 digital_0.S1 AVSS sky130_fd_pr__res_high_po_0p35 l=8.8
X159 digital_0.S1 digital_0.S1 AVSS sky130_fd_pr__res_high_po_0p35 l=8.8
X160 a_3789_19433# AVSS AVSS sky130_fd_pr__res_high_po_0p35 l=17
X161 digital_0.vdde resistor_op_tt_0.C pmos_iptat_0.G digital_0.vdde sky130_fd_pr__pfet_01v8 ad=0.145 pd=1.29 as=0.145 ps=1.29 w=1 l=10
X162 pmos_iptat_0.G pmos_iptat_0.G sky130_fd_pr__cap_mim_m3_1 l=17 w=17
X163 a_3789_20595# AVSS AVSS sky130_fd_pr__res_high_po_0p35 l=17
X164 pmos_startup_0.D2 a_n9219_19599# AVSS sky130_fd_pr__res_high_po_0p35 l=17
X165 AVSS pmos_startup_0.D4 pmos_startup_0.D3 AVSS sky130_fd_pr__nfet_01v8 ad=0.145 pd=1.29 as=0.145 ps=1.29 w=1 l=1
X166 a_n13555_21993# a_n9219_21827# AVSS sky130_fd_pr__res_high_po_0p35 l=17
X167 AVSS AVSS AVSS sky130_fd_pr__pnp_05v5_W3p40L3p40
X168 digital_0.svbgsc digital_0.svbgtc AVSS sky130_fd_pr__res_high_po_0p35 l=17
X169 bjt_0.B bjt_0.B AVSS sky130_fd_pr__res_high_po_0p35 l=8.8
X170 bjt_0.B bjt_0.B AVSS sky130_fd_pr__res_high_po_0p35 l=8.8
X171 a_n13555_22491# a_n9219_22491# AVSS sky130_fd_pr__res_high_po_0p35 l=17
X172 digital_0.S1 digital_0.S1 AVSS sky130_fd_pr__res_high_po_0p35 l=8.8
X173 digital_0.S1 bjt_0.B AVSS sky130_fd_pr__res_high_po_0p35 l=8.8
X174 digital_0.S1 digital_0.S1 AVSS sky130_fd_pr__res_high_po_0p35 l=8.8
X175 digital_0.vdde digital_0.vdde pmos_current_bgr_2_0.D3 digital_0.vdde sky130_fd_pr__pfet_01v8 ad=0.29 pd=2.58 as=0.145 ps=1.29 w=1 l=0.15
X176 pmos_iptat_0.G pmos_current_bgr_2_0.D3 AVSS AVSS sky130_fd_pr__nfet_01v8 ad=0.29 pd=2.58 as=0.29 ps=2.58 w=1 l=20
X177 VREF a_n13555_22325# AVSS sky130_fd_pr__res_high_po_0p35 l=17
X178 a_n4883_20263# a_n547_20263# AVSS sky130_fd_pr__res_high_po_0p35 l=17
X179 digital_0.vdde digital_0.vdde pmos_current_bgr_0.D2 digital_0.vdde sky130_fd_pr__pfet_01v8 ad=0.29 pd=2.58 as=0.145 ps=1.29 w=1 l=0.15
X180 digital_0.S1 digital_0.S1 AVSS sky130_fd_pr__res_high_po_0p35 l=8.8
X181 bjt_0.B digital_0.S1 AVSS sky130_fd_pr__res_high_po_0p35 l=8.8
X182 AVSS AVSS sky130_fd_pr__cap_mim_m3_1 l=17 w=17
X183 resistor_op_tt_0.C differential_pair_0.plus differential_pair_0.S AVSS sky130_fd_pr__nfet_01v8 ad=0.116 pd=1.09 as=0.116 ps=1.09 w=0.8 l=10
X184 resistor_op_tt_0.C AVSS AVSS AVSS sky130_fd_pr__nfet_01v8 ad=0.116 pd=1.09 as=0.232 ps=2.18 w=0.8 l=0.15
X185 a_3789_21827# a_8125_21993# AVSS sky130_fd_pr__res_high_po_0p35 l=17
X186 a_n547_21163# a_3789_21329# AVSS sky130_fd_pr__res_high_po_0p35 l=17
X187 bjt_0.B digital_0.S1 AVSS sky130_fd_pr__res_high_po_0p35 l=8.8
X188 resistor_op_tt_0.D pmos_iptat_0.G sky130_fd_pr__cap_mim_m3_1 l=17 w=17
X189 a_n9219_21329# a_n4883_21163# AVSS sky130_fd_pr__res_high_po_0p35 l=17
X190 a_n9219_20997# a_n4883_20997# AVSS sky130_fd_pr__res_high_po_0p35 l=17
X191 digital_0.vdde digital_0.vdde digital_0.vdde digital_0.vdde sky130_fd_pr__pfet_01v8 ad=0.145 pd=1.29 as=0 ps=0 w=1 l=10
X192 digital_0.D3 DVSS DVSS DVSS sky130_fd_pr__nfet_01v8_lvt ad=0.58 pd=4.29 as=1.16 ps=8.58 w=4 l=0.15
X193 digital_0.S3 DVSS DVSS DVSS sky130_fd_pr__nfet_01v8_lvt ad=0.58 pd=4.29 as=1.16 ps=8.58 w=4 l=0.15
X194 DVSS DVSS digital_0.S3 DVSS sky130_fd_pr__nfet_01v8_lvt ad=1.16 pd=8.58 as=0.58 ps=4.29 w=4 l=0.15
X195 a_n4883_21495# a_n4883_21495# AVSS sky130_fd_pr__res_high_po_0p35 l=17
X196 a_3789_21163# a_8125_21329# AVSS sky130_fd_pr__res_high_po_0p35 l=17
X197 digital_0.D3 digital_0.S3 AVSS sky130_fd_pr__res_high_po_0p35 l=8.8
X198 pmos_current_bgr_0.D2 a_n13555_22159# AVSS sky130_fd_pr__res_high_po_0p35 l=17
X199 a_n4883_20097# a_n547_20097# AVSS sky130_fd_pr__res_high_po_0p35 l=17
X200 digital_0.S2 digital_0.S3 AVSS sky130_fd_pr__res_high_po_0p35 l=8.8
X201 pmos_startup_0.D2 digital_0.vdde digital_0.vdde digital_0.vdde sky130_fd_pr__pfet_01v8 ad=0.145 pd=1.29 as=0.29 ps=2.58 w=1 l=0.15
X202 digital_0.S1 digital_0.S2 AVSS sky130_fd_pr__res_high_po_0p35 l=8.8
X203 digital_0.svbgsc VENA VBGSC DVSS sky130_fd_pr__nfet_01v8_lvt ad=0.145 pd=1.29 as=0.145 ps=1.29 w=1 l=1
X204 digital_0.D3 TRIM3 digital_0.S3 DVSS sky130_fd_pr__nfet_01v8_lvt ad=0.58 pd=4.29 as=0.58 ps=4.29 w=4 l=1
X205 AVSS AVSS AVSS sky130_fd_pr__pnp_05v5_W3p40L3p40
X206 AVSS a_n9219_19433# AVSS sky130_fd_pr__res_high_po_0p35 l=17
X207 AVSS AVSS sky130_fd_pr__cap_mim_m3_1 l=17 w=17
X208 digital_0.S3 TRIM2 digital_0.S2 DVSS sky130_fd_pr__nfet_01v8_lvt ad=0.58 pd=4.29 as=0.58 ps=4.29 w=4 l=1
X209 AVSS AVSS bjt_0.B sky130_fd_pr__pnp_05v5_W3p40L3p40
X210 a_n547_20263# a_3789_20263# AVSS sky130_fd_pr__res_high_po_0p35 l=17
X211 pmos_current_bgr_0.D2 digital_0.vdde digital_0.vdde digital_0.vdde sky130_fd_pr__pfet_01v8 ad=0.145 pd=1.29 as=0.29 ps=2.58 w=1 l=0.15
X212 pmos_current_bgr_0.D2 pmos_iptat_0.G digital_0.vdde digital_0.vdde sky130_fd_pr__pfet_01v8 ad=0.145 pd=1.29 as=0.145 ps=1.29 w=1 l=10
X213 DVSS DVSS digital_0.S1 DVSS sky130_fd_pr__nfet_01v8_lvt ad=1.16 pd=8.58 as=0.58 ps=4.29 w=4 l=0.15
X214 a_n9219_21495# a_n547_21495# AVSS sky130_fd_pr__res_high_po_0p35 l=17
X215 AVSS a_n9219_20595# AVSS sky130_fd_pr__res_high_po_0p35 l=17
X216 digital_0.S2 digital_0.S1 AVSS sky130_fd_pr__res_high_po_0p35 l=8.8
X217 AVSS AVSS resistor_op_tt_0.C AVSS sky130_fd_pr__nfet_01v8 ad=0.232 pd=2.18 as=0.116 ps=1.09 w=0.8 l=0.15
X218 AVSS AVSS pmos_iptat_0.G AVSS sky130_fd_pr__nfet_01v8 ad=0.29 pd=2.58 as=0.29 ps=2.58 w=1 l=0.15
X219 IPTAT digital_0.vdde digital_0.vdde digital_0.vdde sky130_fd_pr__pfet_01v8 ad=0.145 pd=1.29 as=0.29 ps=2.58 w=1 l=0.15
X220 digital_0.vdde resistor_op_tt_0.C pmos_iptat_0.G digital_0.vdde sky130_fd_pr__pfet_01v8 ad=0.145 pd=1.29 as=0.145 ps=1.29 w=1 l=10
X221 digital_0.S1 TRIM1 digital_0.S2 DVSS sky130_fd_pr__nfet_01v8_lvt ad=0.58 pd=4.29 as=0.58 ps=4.29 w=4 l=1
X222 a_3789_20263# a_8125_20263# AVSS sky130_fd_pr__res_high_po_0p35 l=17
X223 a_n547_21495# a_3789_21661# AVSS sky130_fd_pr__res_high_po_0p35 l=17
X224 AVSS AVSS sky130_fd_pr__cap_mim_m3_1 l=17 w=17
X225 AVSS AVSS sky130_fd_pr__cap_mim_m3_1 l=17 w=17
X226 digital_0.S3 TRIM3 digital_0.D3 DVSS sky130_fd_pr__nfet_01v8_lvt ad=0.58 pd=4.29 as=0.58 ps=4.29 w=4 l=1
X227 AVSS AVSS bjt_0.B sky130_fd_pr__pnp_05v5_W3p40L3p40
X228 a_n547_20097# a_3789_20097# AVSS sky130_fd_pr__res_high_po_0p35 l=17
X229 a_n13555_21827# a_n9219_21993# AVSS sky130_fd_pr__res_high_po_0p35 l=17
X230 digital_0.S3 digital_0.S2 AVSS sky130_fd_pr__res_high_po_0p35 l=8.8
X231 digital_0.S1 bjt_0.B AVSS sky130_fd_pr__res_high_po_0p35 l=8.8
X232 digital_0.vdde DVDD DVDD DVDD sky130_fd_pr__pfet_01v8 ad=0.145 pd=1.29 as=0.29 ps=2.58 w=1 l=0.15
X233 AVDD ENA digital_0.vdde DVDD sky130_fd_pr__pfet_01v8 ad=0.145 pd=1.29 as=0.145 ps=1.29 w=1 l=2
X234 AVSS AVSS AVSS sky130_fd_pr__pnp_05v5_W3p40L3p40
X235 DVDD DVDD digital_0.vdde DVDD sky130_fd_pr__pfet_01v8 ad=0.29 pd=2.58 as=0.145 ps=1.29 w=1 l=0.15
X236 digital_0.S1 TRIM0 bjt_0.B DVSS sky130_fd_pr__nfet_01v8_lvt ad=0.58 pd=4.29 as=0.58 ps=4.29 w=4 l=1
X237 a_n17355_21661# a_n13555_21827# AVSS sky130_fd_pr__res_high_po_0p35 l=17
X238 digital_0.S3 digital_0.D3 AVSS sky130_fd_pr__res_high_po_0p35 l=8.8
X239 AVSS a_n13555_22491# AVSS sky130_fd_pr__res_high_po_0p35 l=17
X240 a_3789_21495# a_8125_21329# AVSS sky130_fd_pr__res_high_po_0p35 l=17
X241 bjt_0.B digital_0.S1 AVSS sky130_fd_pr__res_high_po_0p35 l=8.8
X242 resistor_op_tt_0.A pmos_current_bgr_2_0.D3 pmos_current_bgr_2_0.D4 AVSS sky130_fd_pr__nfet_01v8 ad=0.29 pd=2.58 as=0.29 ps=2.58 w=1 l=20
X243 a_n13555_21163# a_n9219_21329# AVSS sky130_fd_pr__res_high_po_0p35 l=17
X244 a_3789_20097# a_8125_19931# AVSS sky130_fd_pr__res_high_po_0p35 l=17
X245 a_n4883_21495# a_3789_21495# AVSS sky130_fd_pr__res_high_po_0p35 l=17
X246 digital_0.vdde pmos_iptat_0.G VREF digital_0.vdde sky130_fd_pr__pfet_01v8 ad=0.145 pd=1.29 as=0.145 ps=1.29 w=1 l=10
X247 pmos_current_bgr_2_0.D4 pmos_current_bgr_2_0.D3 resistor_op_tt_0.A AVSS sky130_fd_pr__nfet_01v8 ad=0.29 pd=2.58 as=0.29 ps=2.58 w=1 l=20
X248 bjt_0.B TRIM0 digital_0.S1 DVSS sky130_fd_pr__nfet_01v8_lvt ad=0.58 pd=4.29 as=0.58 ps=4.29 w=4 l=1
X249 digital_0.S1 DVSS DVSS DVSS sky130_fd_pr__nfet_01v8_lvt ad=0.58 pd=4.29 as=1.16 ps=8.58 w=4 l=0.15
X250 digital_0.S1 bjt_0.B AVSS sky130_fd_pr__res_high_po_0p35 l=8.8
X251 digital_0.vdde ENA AVDD DVDD sky130_fd_pr__pfet_01v8 ad=0.145 pd=1.29 as=0.145 ps=1.29 w=1 l=2
X252 a_968_15663# AVSS AVSS sky130_fd_pr__res_high_po_0p35 l=3
X253 digital_0.vdde digital_0.vdde digital_0.vdde digital_0.vdde sky130_fd_pr__pfet_01v8 ad=0.145 pd=1.29 as=0 ps=0 w=1 l=10
X254 digital_0.vdde digital_0.vdde pmos_iptat_0.G digital_0.vdde sky130_fd_pr__pfet_01v8 ad=0.29 pd=2.58 as=0.145 ps=1.29 w=1 l=0.15
X255 bjt_0.B bjt_0.B AVSS sky130_fd_pr__res_high_po_0p35 l=8.8
X256 a_3789_21661# a_8125_21163# AVSS sky130_fd_pr__res_high_po_0p35 l=17
X257 digital_0.S1 digital_0.S2 AVSS sky130_fd_pr__res_high_po_0p35 l=8.8
X258 bjt_0.B bjt_0.B AVSS sky130_fd_pr__res_high_po_0p35 l=8.8
X259 DVSS DVSS VBGTC DVSS sky130_fd_pr__nfet_01v8_lvt ad=0.29 pd=2.58 as=0.145 ps=1.29 w=1 l=0.15
X260 VREF pmos_iptat_0.G digital_0.vdde digital_0.vdde sky130_fd_pr__pfet_01v8 ad=0.145 pd=1.29 as=0.145 ps=1.29 w=1 l=10
X261 digital_0.vdde digital_0.vdde resistor_op_tt_0.C digital_0.vdde sky130_fd_pr__pfet_01v8 ad=0.29 pd=2.58 as=0.145 ps=1.29 w=1 l=0.15
X262 AVSS AVSS bjt_0.B sky130_fd_pr__pnp_05v5_W3p40L3p40
X263 pmos_current_bgr_2_0.D4 pmos_current_bgr_2_0.D4 digital_0.vdde digital_0.vdde sky130_fd_pr__pfet_01v8 ad=0.145 pd=1.29 as=0.145 ps=1.29 w=1 l=10
X264 digital_0.S2 digital_0.S1 AVSS sky130_fd_pr__res_high_po_0p35 l=8.8
X265 AVSS resistor_op_tt_0.A AVSS sky130_fd_pr__res_high_po_0p35 l=3
X266 a_n9219_22159# a_n4883_22325# AVSS sky130_fd_pr__res_high_po_0p35 l=17
X267 a_n4883_21329# a_n547_21163# AVSS sky130_fd_pr__res_high_po_0p35 l=17
X268 a_n4883_20997# a_n547_20997# AVSS sky130_fd_pr__res_high_po_0p35 l=17
X269 a_n13019_20097# a_n9219_20263# AVSS sky130_fd_pr__res_high_po_0p35 l=17
X270 DVSS DVSS digital_0.D3 DVSS sky130_fd_pr__nfet_01v8_lvt ad=1.16 pd=8.58 as=0.58 ps=4.29 w=4 l=0.15
X271 AVSS AVSS AVSS sky130_fd_pr__pnp_05v5_W3p40L3p40
X272 AVSS a_968_15663# AVSS sky130_fd_pr__res_high_po_0p35 l=3
X273 differential_pair_0.D4 differential_pair_0.D4 digital_0.vdde digital_0.vdde sky130_fd_pr__pfet_01v8 ad=0.145 pd=1.29 as=0.145 ps=1.29 w=1 l=10
X274 AVSS AVSS bjt_0.B sky130_fd_pr__pnp_05v5_W3p40L3p40
X275 pmos_iptat_0.G resistor_op_tt_0.C digital_0.vdde digital_0.vdde sky130_fd_pr__pfet_01v8 ad=0.145 pd=1.29 as=0.145 ps=1.29 w=1 l=10
X276 digital_0.vdde pmos_startup_0.D3 pmos_startup_0.D2 digital_0.vdde sky130_fd_pr__pfet_01v8 ad=0.145 pd=1.29 as=0.145 ps=1.29 w=1 l=10
X277 a_n13555_21495# a_n9219_21661# AVSS sky130_fd_pr__res_high_po_0p35 l=17
X278 digital_0.S2 digital_0.S1 AVSS sky130_fd_pr__res_high_po_0p35 l=8.8
X279 digital_0.S1 bjt_0.B AVSS sky130_fd_pr__res_high_po_0p35 l=8.8
X280 AVSS AVSS pmos_current_bgr_2_0.D4 AVSS sky130_fd_pr__nfet_01v8 ad=0.29 pd=2.58 as=0.29 ps=2.58 w=1 l=0.15
X281 differential_pair_0.S bjt_0.A differential_pair_0.D4 AVSS sky130_fd_pr__nfet_01v8 ad=0.116 pd=1.09 as=0.116 ps=1.09 w=0.8 l=10
X282 a_n9219_22325# a_n4883_22159# AVSS sky130_fd_pr__res_high_po_0p35 l=17
X283 a_n13019_20097# a_n9219_20097# AVSS sky130_fd_pr__res_high_po_0p35 l=17
X284 a_n9219_19931# a_n4883_19931# AVSS sky130_fd_pr__res_high_po_0p35 l=17
X285 bjt_0.B bjt_0.B AVSS sky130_fd_pr__res_high_po_0p35 l=8.8
X286 AVSS AVSS AVSS sky130_fd_pr__pnp_05v5_W3p40L3p40
X287 AVSS AVSS bjt_0.B sky130_fd_pr__pnp_05v5_W3p40L3p40
X288 AVSS pmos_current_bgr_2_0.D3 pmos_iptat_0.G AVSS sky130_fd_pr__nfet_01v8 ad=0.29 pd=2.58 as=0.29 ps=2.58 w=1 l=20
X289 bjt_0.B digital_0.S1 AVSS sky130_fd_pr__res_high_po_0p35 l=8.8
X290 digital_0.vdde pmos_iptat_0.G pmos_current_bgr_0.D2 digital_0.vdde sky130_fd_pr__pfet_01v8 ad=0.145 pd=1.29 as=0.145 ps=1.29 w=1 l=10
X291 pmos_current_bgr_2_0.D3 digital_0.vdde digital_0.vdde digital_0.vdde sky130_fd_pr__pfet_01v8 ad=0.145 pd=1.29 as=0.29 ps=2.58 w=1 l=0.15
X292 digital_0.vdde pmos_current_bgr_2_0.D4 pmos_current_bgr_2_0.D3 digital_0.vdde sky130_fd_pr__pfet_01v8 ad=0.145 pd=1.29 as=0.145 ps=1.29 w=1 l=10
X293 resistor_op_tt_0.D a_968_14999# AVSS sky130_fd_pr__res_high_po_0p35 l=3
X294 a_n17355_21495# a_n13555_21993# AVSS sky130_fd_pr__res_high_po_0p35 l=17
X295 digital_0.vdde pmos_iptat_0.G IPTAT digital_0.vdde sky130_fd_pr__pfet_01v8 ad=0.145 pd=1.29 as=0.145 ps=1.29 w=1 l=10
X296 a_n547_21329# a_3789_21163# AVSS sky130_fd_pr__res_high_po_0p35 l=17
X297 a_n547_20997# a_3789_20997# AVSS sky130_fd_pr__res_high_po_0p35 l=17
X298 a_n13555_21661# a_n9219_21495# AVSS sky130_fd_pr__res_high_po_0p35 l=17
X299 digital_0.S1 bjt_0.B AVSS sky130_fd_pr__res_high_po_0p35 l=8.8
X300 resistor_op_tt_0.D pmos_iptat_0.G sky130_fd_pr__cap_mim_m3_1 l=17 w=17
X301 digital_0.S2 DVSS DVSS DVSS sky130_fd_pr__nfet_01v8_lvt ad=0.58 pd=4.29 as=1.16 ps=8.58 w=4 l=0.15
X302 a_968_14999# resistor_op_tt_0.C AVSS sky130_fd_pr__res_high_po_0p35 l=3
X303 a_n9219_19765# a_n4883_19765# AVSS sky130_fd_pr__res_high_po_0p35 l=17
X304 digital_0.S2 digital_0.S2 AVSS sky130_fd_pr__res_high_po_0p35 l=8.8
X305 AVSS AVSS sky130_fd_pr__cap_mim_m3_1 l=17 w=17
X306 DVSS DVSS digital_0.S2 DVSS sky130_fd_pr__nfet_01v8_lvt ad=1.16 pd=8.58 as=0.58 ps=4.29 w=4 l=0.15
X307 bjt_0.A a_n13555_21329# AVSS sky130_fd_pr__res_high_po_0p35 l=17
X308 a_n9219_20429# a_n4883_20429# AVSS sky130_fd_pr__res_high_po_0p35 l=17
X309 resistor_op_tt_0.C digital_0.vdde digital_0.vdde digital_0.vdde sky130_fd_pr__pfet_01v8 ad=0.145 pd=1.29 as=0.29 ps=2.58 w=1 l=0.15
X310 digital_0.vdde differential_pair_0.D4 resistor_op_tt_0.C digital_0.vdde sky130_fd_pr__pfet_01v8 ad=0.145 pd=1.29 as=0.145 ps=1.29 w=1 l=10
X311 digital_0.D3 DVSS DVSS DVSS sky130_fd_pr__nfet_01v8_lvt ad=0.58 pd=4.29 as=1.16 ps=8.58 w=4 l=0.15
X312 AVSS AVSS bjt_0.A sky130_fd_pr__pnp_05v5_W3p40L3p40
X313 bjt_0.B bjt_0.B AVSS sky130_fd_pr__res_high_po_0p35 l=8.8
X314 digital_0.vdde digital_0.vdde pmos_iptat_0.G digital_0.vdde sky130_fd_pr__pfet_01v8 ad=0.29 pd=2.58 as=0.145 ps=1.29 w=1 l=0.15
X315 pmos_startup_0.D4 digital_0.vdde digital_0.vdde digital_0.vdde sky130_fd_pr__pfet_01v8 ad=0.145 pd=1.29 as=0.29 ps=2.58 w=1 l=0.15
X316 a_3789_21329# a_8125_21163# AVSS sky130_fd_pr__res_high_po_0p35 l=17
X317 a_3789_20997# AVSS AVSS sky130_fd_pr__res_high_po_0p35 l=17
X318 bjt_0.B bjt_0.B AVSS sky130_fd_pr__res_high_po_0p35 l=8.8
X319 IPTAT pmos_iptat_0.G digital_0.vdde digital_0.vdde sky130_fd_pr__pfet_01v8 ad=0.145 pd=1.29 as=0.145 ps=1.29 w=1 l=10
X320 digital_0.S2 TRIM2 digital_0.S3 DVSS sky130_fd_pr__nfet_01v8_lvt ad=0.58 pd=4.29 as=0.58 ps=4.29 w=4 l=1
X321 digital_0.vdde digital_0.vdde digital_0.vdde digital_0.vdde sky130_fd_pr__pfet_01v8 ad=0.145 pd=1.29 as=0 ps=0 w=1 l=10
X322 digital_0.vdde digital_0.vdde IPTAT digital_0.vdde sky130_fd_pr__pfet_01v8 ad=0.29 pd=2.58 as=0.145 ps=1.29 w=1 l=0.15
X323 pmos_current_bgr_2_0.D3 pmos_current_bgr_2_0.D4 digital_0.vdde digital_0.vdde sky130_fd_pr__pfet_01v8 ad=0.145 pd=1.29 as=0.145 ps=1.29 w=1 l=10
X324 digital_0.S2 TRIM1 digital_0.S1 DVSS sky130_fd_pr__nfet_01v8_lvt ad=0.58 pd=4.29 as=0.58 ps=4.29 w=4 l=1
X325 a_968_14999# resistor_op_tt_0.C AVSS sky130_fd_pr__res_high_po_0p35 l=3
X326 a_n9219_19599# a_n4883_19599# AVSS sky130_fd_pr__res_high_po_0p35 l=17
X327 digital_0.D3 TRIM3 digital_0.S3 DVSS sky130_fd_pr__nfet_01v8_lvt ad=0.58 pd=4.29 as=0.58 ps=4.29 w=4 l=1
X328 AVSS resistor_op_tt_0.A AVSS sky130_fd_pr__res_high_po_0p35 l=3
X329 a_n9219_21993# a_n9219_21993# AVSS sky130_fd_pr__res_high_po_0p35 l=17