* NGSPICE file created from bgr_op5_block_rev1_rcx.ext - technology: sky130A

.subckt bgr_op5_block_rev1_rcx ENA AVDD DVDD VREF VBGSC TRIM3 TRIM2 IPTAT VENA DVSS
+ TRIM0 TRIM1 AVSS VBGTC
X0 VREF VREF VREF digital_0.VDDE sky130_fd_pr__pfet_01v8 ad=0.29 pd=2.58 as=2.32 ps=20.64 w=1 l=0.15
X1 pmos_current_bgr_2_0.D3 pmos_current_bgr_2_0.D3 pmos_current_bgr_2_0.D3 AVSS sky130_fd_pr__nfet_01v8 ad=0.29 pd=2.58 as=1.74 ps=15.48 w=1 l=0.15
X2 digital_0.S1 TRIM0 bjt_0.B DVSS sky130_fd_pr__nfet_01v8_lvt ad=0.58 pd=4.29 as=0.58 ps=4.29 w=4 l=1
X3 digital_0.D3 TRIM3 digital_0.S3 DVSS sky130_fd_pr__nfet_01v8_lvt ad=0.58 pd=4.29 as=0.58 ps=4.29 w=4 l=1
X4 digital_0.S3 digital_0.S3 digital_0.S3 DVSS sky130_fd_pr__nfet_01v8_lvt ad=0.58 pd=4.29 as=11.599999 ps=85.799995 w=4 l=0.15
X5 pmos_iptat_0.G resistor_op_tt_0.C digital_0.VDDE digital_0.VDDE sky130_fd_pr__pfet_01v8 ad=0.145 pd=1.29 as=0.145 ps=1.29 w=1 l=10
X6 AVSS AVSS bjt_0.B sky130_fd_pr__pnp_05v5_W3p40L3p40
**devattr s=462400,2720 d=11121552,65696
X7 AVSS AVSS AVSS sky130_fd_pr__pnp_05v5_W3p40L3p40
**devattr s=462400,2720 d=11121552,65696
X8 pmos_startup_0.D3 bjt_0.A AVSS AVSS sky130_fd_pr__nfet_01v8 ad=0.145 pd=1.29 as=0.145 ps=1.29 w=1 l=1
X9 digital_0.VDDE pmos_current_bgr_2_0.D4 pmos_current_bgr_2_0.D4 digital_0.VDDE sky130_fd_pr__pfet_01v8 ad=0.145 pd=1.29 as=0.145 ps=1.29 w=1 l=10
X10 a_n4883_22159# a_n547_22325# AVSS sky130_fd_pr__res_high_po_0p35 l=17
X11 a_n17355_21661# a_n13555_21661# AVSS sky130_fd_pr__res_high_po_0p35 l=17
X12 pmos_current_bgr_2_0.D4 pmos_current_bgr_2_0.D4 pmos_current_bgr_2_0.D4 digital_0.VDDE sky130_fd_pr__pfet_01v8 ad=0.29 pd=2.58 as=1.16 ps=10.32 w=1 l=0.15
X13 bjt_0.B TRIM0 digital_0.S1 DVSS sky130_fd_pr__nfet_01v8_lvt ad=0.58 pd=4.29 as=0.58 ps=4.29 w=4 l=1
X14 pmos_startup_0.D3 pmos_startup_0.D3 pmos_startup_0.D3 AVSS sky130_fd_pr__nfet_01v8 ad=0.29 pd=2.58 as=2.32 ps=20.64 w=1 l=0.15
X15 a_n13555_21329# a_n9219_21163# AVSS sky130_fd_pr__res_high_po_0p35 l=17
X16 a_n13555_20997# a_n9219_20997# AVSS sky130_fd_pr__res_high_po_0p35 l=17
X17 pmos_startup_0.D3 pmos_startup_0.D3 pmos_startup_0.D3 AVSS sky130_fd_pr__nfet_01v8 ad=0.145 pd=1.29 as=0 ps=0 w=1 l=0.15
X18 a_n9219_19433# a_n4883_19433# AVSS sky130_fd_pr__res_high_po_0p35 l=17
X19 pmos_current_bgr_2_0.D4 pmos_current_bgr_2_0.D3 resistor_op_tt_0.A AVSS sky130_fd_pr__nfet_01v8 ad=0.29 pd=2.58 as=0.29 ps=2.58 w=1 l=20
X20 digital_0.S3 digital_0.D3 AVSS sky130_fd_pr__res_high_po_0p35 l=8.4
X21 pmos_startup_0.D3 pmos_startup_0.D3 pmos_startup_0.D3 digital_0.VDDE sky130_fd_pr__pfet_01v8 ad=0.145 pd=1.29 as=0.58 ps=5.16 w=1 l=0.15
X22 a_n4883_22325# a_n547_22159# AVSS sky130_fd_pr__res_high_po_0p35 l=17
X23 a_n17355_21495# a_n13555_21495# AVSS sky130_fd_pr__res_high_po_0p35 l=17
X24 a_n9219_20595# a_n4883_20595# AVSS sky130_fd_pr__res_high_po_0p35 l=17
X25 a_n4883_19931# a_n547_19931# AVSS sky130_fd_pr__res_high_po_0p35 l=17
X26 digital_0.S3 digital_0.S2 AVSS sky130_fd_pr__res_high_po_0p35 l=8.4
X27 pmos_iptat_0.G resistor_op_tt_0.D sky130_fd_pr__cap_mim_m3_1 l=17 w=17
X28 IPTAT IPTAT IPTAT digital_0.VDDE sky130_fd_pr__pfet_01v8 ad=0.29 pd=2.58 as=2.32 ps=20.64 w=1 l=0.15
X29 digital_0.VDDE digital_0.VDDE digital_0.VDDE DVDD sky130_fd_pr__pfet_01v8 ad=0.29 pd=2.29 as=10.44 ps=88.240005 w=2 l=0.15
X30 digital_0.VDDE digital_0.VDDE digital_0.VDDE digital_0.VDDE sky130_fd_pr__pfet_01v8 ad=0.145 pd=1.29 as=0 ps=0 w=1 l=10
X31 AVSS pmos_current_bgr_2_0.D3 pmos_iptat_0.G AVSS sky130_fd_pr__nfet_01v8 ad=0.29 pd=2.58 as=0.29 ps=2.58 w=1 l=20
X32 a_n547_22159# a_3789_22325# AVSS sky130_fd_pr__res_high_po_0p35 l=17
X33 VREF VREF VREF digital_0.VDDE sky130_fd_pr__pfet_01v8 ad=0.145 pd=1.29 as=0 ps=0 w=1 l=0.15
X34 bjt_0.B bjt_0.B AVSS sky130_fd_pr__res_high_po_0p35 l=8.4
X35 pmos_current_bgr_0.D1 pmos_iptat_0.G digital_0.VDDE digital_0.VDDE sky130_fd_pr__pfet_01v8 ad=0.145 pd=1.29 as=0.145 ps=1.29 w=1 l=10
X36 a_n9219_21827# digital_0.SVBGSC AVSS sky130_fd_pr__res_high_po_0p35 l=17
X37 a_n4883_19765# a_n547_19765# AVSS sky130_fd_pr__res_high_po_0p35 l=17
X38 digital_0.S1 bjt_0.B AVSS sky130_fd_pr__res_high_po_0p35 l=8.4
X39 bjt_0.B bjt_0.B AVSS sky130_fd_pr__res_high_po_0p35 l=8.4
X40 differential_pair_0.S differential_pair_0.S differential_pair_0.S AVSS sky130_fd_pr__nfet_01v8 ad=0.29 pd=2.58 as=2.262 ps=20.24 w=1 l=0.15
X41 AVSS AVSS sky130_fd_pr__cap_mim_m3_1 l=17 w=17
X42 a_n4883_20429# a_n547_20429# AVSS sky130_fd_pr__res_high_po_0p35 l=17
X43 AVSS AVSS sky130_fd_pr__cap_mim_m3_1 l=17 w=17
X44 digital_0.VDDE digital_0.VDDE digital_0.VDDE digital_0.VDDE sky130_fd_pr__pfet_01v8 ad=0.145 pd=1.29 as=0 ps=0 w=1 l=10
X45 a_3789_22159# a_8125_21993# AVSS sky130_fd_pr__res_high_po_0p35 l=17
X46 a_n9219_21163# a_n4883_21329# AVSS sky130_fd_pr__res_high_po_0p35 l=17
X47 AVSS AVSS bjt_0.B sky130_fd_pr__pnp_05v5_W3p40L3p40
**devattr s=462400,2720 d=11121552,65696
X48 a_n547_22325# a_3789_22159# AVSS sky130_fd_pr__res_high_po_0p35 l=17
X49 a_n547_19931# a_3789_19931# AVSS sky130_fd_pr__res_high_po_0p35 l=17
X50 resistor_op_tt_0.C differential_pair_0.D4 digital_0.VDDE digital_0.VDDE sky130_fd_pr__pfet_01v8 ad=0.145 pd=1.29 as=0.145 ps=1.29 w=1 l=10
X51 digital_0.S1 digital_0.S1 digital_0.S1 DVSS sky130_fd_pr__nfet_01v8_lvt ad=0.58 pd=4.29 as=11.599999 ps=85.799995 w=4 l=0.15
X52 AVSS AVSS AVSS sky130_fd_pr__pnp_05v5_W3p40L3p40
**devattr s=462400,2720 d=11121552,65696
X53 pmos_current_bgr_2_0.D4 pmos_current_bgr_2_0.D4 pmos_current_bgr_2_0.D4 AVSS sky130_fd_pr__nfet_01v8 ad=0.29 pd=2.58 as=1.74 ps=15.48 w=1 l=0.15
X54 a_n4883_19599# a_n547_19599# AVSS sky130_fd_pr__res_high_po_0p35 l=17
X55 digital_0.S1 digital_0.S1 AVSS sky130_fd_pr__res_high_po_0p35 l=8.4
X56 pmos_startup_0.D3 bjt_0.A AVSS AVSS sky130_fd_pr__nfet_01v8 ad=0.145 pd=1.29 as=0.145 ps=1.29 w=1 l=1
X57 AVSS AVSS AVSS sky130_fd_pr__pnp_05v5_W3p40L3p40
**devattr s=462400,2720 d=11121552,65696
X58 a_n4883_21661# digital_0.D3 AVSS sky130_fd_pr__res_high_po_0p35 l=17
X59 digital_0.S1 digital_0.S1 AVSS sky130_fd_pr__res_high_po_0p35 l=8.4
X60 pmos_iptat_0.G pmos_iptat_0.G pmos_iptat_0.G digital_0.VDDE sky130_fd_pr__pfet_01v8 ad=0.29 pd=2.58 as=2.32 ps=20.64 w=1 l=0.15
X61 digital_0.S2 digital_0.S2 digital_0.S2 DVSS sky130_fd_pr__nfet_01v8_lvt ad=1.16 pd=8.58 as=11.599999 ps=85.799995 w=4 l=0.15
X62 a_n4883_22491# a_n547_22491# AVSS sky130_fd_pr__res_high_po_0p35 l=17
X63 a_3789_22325# a_8125_21827# AVSS sky130_fd_pr__res_high_po_0p35 l=17
X64 a_3789_19931# a_8125_19931# AVSS sky130_fd_pr__res_high_po_0p35 l=17
X65 pmos_startup_0.D3 pmos_startup_0.D3 pmos_startup_0.D3 AVSS sky130_fd_pr__nfet_01v8 ad=0.29 pd=2.58 as=0 ps=0 w=1 l=0.15
X66 AVSS AVSS sky130_fd_pr__cap_mim_m3_1 l=17 w=17
X67 digital_0.S3 TRIM3 digital_0.D3 DVSS sky130_fd_pr__nfet_01v8_lvt ad=0.58 pd=4.29 as=0.58 ps=4.29 w=4 l=1
X68 digital_0.D3 digital_0.D3 digital_0.D3 DVSS sky130_fd_pr__nfet_01v8_lvt ad=1.16 pd=8.58 as=9.28 ps=68.64 w=4 l=0.15
X69 differential_pair_0.D4 differential_pair_0.D4 differential_pair_0.D4 AVSS sky130_fd_pr__nfet_01v8 ad=0.261 pd=2.38 as=1.044 ps=9.52 w=0.9 l=0.15
X70 VREF pmos_iptat_0.G digital_0.VDDE digital_0.VDDE sky130_fd_pr__pfet_01v8 ad=0.145 pd=1.29 as=0.145 ps=1.29 w=1 l=10
X71 pmos_iptat_0.G pmos_current_bgr_2_0.D3 AVSS AVSS sky130_fd_pr__nfet_01v8 ad=0.29 pd=2.58 as=0.29 ps=2.58 w=1 l=20
X72 digital_0.SVBGSC VENA VBGSC DVSS sky130_fd_pr__nfet_01v8_lvt ad=0.145 pd=1.29 as=0.145 ps=1.29 w=1 l=1
X73 VBGTC VBGTC VBGTC DVSS sky130_fd_pr__nfet_01v8_lvt ad=0.29 pd=2.58 as=1.16 ps=10.32 w=1 l=0.15
X74 a_n547_19765# a_3789_19765# AVSS sky130_fd_pr__res_high_po_0p35 l=17
X75 digital_0.VDDE pmos_iptat_0.G VREF digital_0.VDDE sky130_fd_pr__pfet_01v8 ad=0.145 pd=1.29 as=0.145 ps=1.29 w=1 l=10
X76 digital_0.S2 TRIM2 digital_0.S3 DVSS sky130_fd_pr__nfet_01v8_lvt ad=0.58 pd=4.29 as=0.58 ps=4.29 w=4 l=1
X77 pmos_startup_0.D3 pmos_startup_0.D3 pmos_startup_0.D3 AVSS sky130_fd_pr__nfet_01v8 ad=0.145 pd=1.29 as=0 ps=0 w=1 l=0.15
X78 AVSS AVSS AVSS sky130_fd_pr__pnp_05v5_W3p40L3p40
**devattr s=462400,2720 d=11121552,65696
X79 differential_pair_0.PLUS a_n13555_21163# AVSS sky130_fd_pr__res_high_po_0p35 l=17
X80 a_n547_20429# a_3789_20429# AVSS sky130_fd_pr__res_high_po_0p35 l=17
X81 digital_0.S2 digital_0.S1 AVSS sky130_fd_pr__res_high_po_0p35 l=8.4
X82 AVSS AVSS sky130_fd_pr__cap_mim_m3_1 l=17 w=17
X83 AVSS a_n13555_20997# AVSS sky130_fd_pr__res_high_po_0p35 l=17
X84 a_n9219_20263# a_n4883_20263# AVSS sky130_fd_pr__res_high_po_0p35 l=17
X85 digital_0.S1 bjt_0.B AVSS sky130_fd_pr__res_high_po_0p35 l=8.4
X86 AVSS AVSS bjt_0.B sky130_fd_pr__pnp_05v5_W3p40L3p40
**devattr s=462400,2720 d=11121552,65696
X87 a_3789_19765# a_8125_19599# AVSS sky130_fd_pr__res_high_po_0p35 l=17
X88 digital_0.VDDE differential_pair_0.D4 differential_pair_0.D4 digital_0.VDDE sky130_fd_pr__pfet_01v8 ad=0.145 pd=1.29 as=0.145 ps=1.29 w=1 l=10
X89 digital_0.VDDE ENA AVDD DVDD sky130_fd_pr__pfet_01v8 ad=0.29 pd=2.29 as=0.29 ps=2.29 w=2 l=2
X90 a_3789_20429# a_8125_20263# AVSS sky130_fd_pr__res_high_po_0p35 l=17
X91 differential_pair_0.D4 differential_pair_0.D4 differential_pair_0.D4 digital_0.VDDE sky130_fd_pr__pfet_01v8 ad=0.29 pd=2.58 as=1.16 ps=10.32 w=1 l=0.15
X92 AVDD ENA digital_0.VDDE DVDD sky130_fd_pr__pfet_01v8 ad=0.29 pd=2.29 as=0.29 ps=2.29 w=2 l=2
X93 digital_0.VDDE digital_0.VDDE digital_0.VDDE DVDD sky130_fd_pr__pfet_01v8 ad=0.58 pd=4.58 as=0 ps=0 w=2 l=0.15
X94 digital_0.S1 digital_0.S1 digital_0.S1 DVSS sky130_fd_pr__nfet_01v8_lvt ad=1.16 pd=8.58 as=0 ps=0 w=4 l=0.15
X95 digital_0.S2 TRIM1 digital_0.S1 DVSS sky130_fd_pr__nfet_01v8_lvt ad=0.58 pd=4.29 as=0.58 ps=4.29 w=4 l=1
X96 differential_pair_0.D4 bjt_0.A differential_pair_0.S AVSS sky130_fd_pr__nfet_01v8 ad=0.1305 pd=1.19 as=0.1305 ps=1.19 w=0.9 l=13
X97 a_n547_19599# a_3789_19599# AVSS sky130_fd_pr__res_high_po_0p35 l=17
X98 AVSS bjt_0.A pmos_startup_0.D3 AVSS sky130_fd_pr__nfet_01v8 ad=0.145 pd=1.29 as=0.145 ps=1.29 w=1 l=1
X99 digital_0.D3 digital_0.D3 digital_0.D3 DVSS sky130_fd_pr__nfet_01v8_lvt ad=0.58 pd=4.29 as=0 ps=0 w=4 l=0.15
X100 a_n547_21993# a_3789_21827# AVSS sky130_fd_pr__res_high_po_0p35 l=17
X101 resistor_op_tt_0.C resistor_op_tt_0.C resistor_op_tt_0.C AVSS sky130_fd_pr__nfet_01v8 ad=0.1305 pd=1.19 as=1.044 ps=9.52 w=0.9 l=0.15
X102 a_n13555_22159# a_n9219_22325# AVSS sky130_fd_pr__res_high_po_0p35 l=17
X103 differential_pair_0.PLUS a_n4883_21661# AVSS sky130_fd_pr__res_high_po_0p35 l=17
X104 digital_0.S1 bjt_0.B AVSS sky130_fd_pr__res_high_po_0p35 l=8.4
X105 a_n547_22491# a_3789_22491# AVSS sky130_fd_pr__res_high_po_0p35 l=17
X106 a_n9219_20097# a_n4883_20097# AVSS sky130_fd_pr__res_high_po_0p35 l=17
X107 a_n4883_19433# a_n547_19433# AVSS sky130_fd_pr__res_high_po_0p35 l=17
X108 digital_0.S2 digital_0.S2 AVSS sky130_fd_pr__res_high_po_0p35 l=8.4
X109 digital_0.VDDE pmos_iptat_0.G pmos_current_bgr_0.D1 digital_0.VDDE sky130_fd_pr__pfet_01v8 ad=0.145 pd=1.29 as=0.145 ps=1.29 w=1 l=10
X110 pmos_current_bgr_2_0.D4 pmos_current_bgr_2_0.D4 pmos_current_bgr_2_0.D4 digital_0.VDDE sky130_fd_pr__pfet_01v8 ad=0.145 pd=1.29 as=0 ps=0 w=1 l=0.15
X111 pmos_iptat_0.G resistor_op_tt_0.D sky130_fd_pr__cap_mim_m3_1 l=17 w=17
X112 digital_0.S1 TRIM1 digital_0.S2 DVSS sky130_fd_pr__nfet_01v8_lvt ad=0.58 pd=4.29 as=0.58 ps=4.29 w=4 l=1
X113 a_3789_19599# a_8125_19599# AVSS sky130_fd_pr__res_high_po_0p35 l=17
X114 resistor_op_tt_0.A pmos_current_bgr_2_0.D3 pmos_current_bgr_2_0.D4 AVSS sky130_fd_pr__nfet_01v8 ad=0.29 pd=2.58 as=0.29 ps=2.58 w=1 l=20
X115 digital_0.SVBGTC a_8125_21827# AVSS sky130_fd_pr__res_high_po_0p35 l=17
X116 a_n4883_20595# a_n547_20595# AVSS sky130_fd_pr__res_high_po_0p35 l=17
X117 pmos_iptat_0.G pmos_iptat_0.G pmos_iptat_0.G AVSS sky130_fd_pr__nfet_01v8 ad=0.29 pd=2.58 as=1.74 ps=15.48 w=1 l=0.15
X118 digital_0.VDDE pmos_iptat_0.G IPTAT digital_0.VDDE sky130_fd_pr__pfet_01v8 ad=0.145 pd=1.29 as=0.145 ps=1.29 w=1 l=10
X119 digital_0.S2 digital_0.S2 digital_0.S2 DVSS sky130_fd_pr__nfet_01v8_lvt ad=0.58 pd=4.29 as=0 ps=0 w=4 l=0.15
X120 AVSS AVSS AVSS sky130_fd_pr__pnp_05v5_W3p40L3p40
**devattr s=462400,2720 d=11121552,65696
X121 a_3789_22491# AVSS AVSS sky130_fd_pr__res_high_po_0p35 l=17
X122 digital_0.VDDE digital_0.VDDE digital_0.VDDE digital_0.VDDE sky130_fd_pr__pfet_01v8 ad=0.145 pd=1.29 as=0 ps=0 w=1 l=10
X123 a_n13555_22325# a_n9219_22159# AVSS sky130_fd_pr__res_high_po_0p35 l=17
X124 a_n9219_21661# a_n4883_21495# AVSS sky130_fd_pr__res_high_po_0p35 l=17
X125 a_n13019_19765# a_n9219_19931# AVSS sky130_fd_pr__res_high_po_0p35 l=17
X126 digital_0.S1 digital_0.S1 AVSS sky130_fd_pr__res_high_po_0p35 l=8.4
X127 bjt_0.B digital_0.S1 AVSS sky130_fd_pr__res_high_po_0p35 l=8.4
X128 digital_0.S2 digital_0.S1 AVSS sky130_fd_pr__res_high_po_0p35 l=8.4
X129 differential_pair_0.D4 differential_pair_0.D4 differential_pair_0.D4 digital_0.VDDE sky130_fd_pr__pfet_01v8 ad=0.145 pd=1.29 as=0 ps=0 w=1 l=0.15
X130 AVSS AVSS AVSS sky130_fd_pr__pnp_05v5_W3p40L3p40
**devattr s=462400,2720 d=11121552,65696
X131 bjt_0.A bjt_0.A bjt_0.A digital_0.VDDE sky130_fd_pr__pfet_01v8 ad=0.145 pd=1.29 as=12.139999 ps=18.76 w=1 l=0.15
X132 pmos_iptat_0.G pmos_iptat_0.G pmos_iptat_0.G digital_0.VDDE sky130_fd_pr__pfet_01v8 ad=0.29 pd=2.58 as=0 ps=0 w=1 l=0.15
X133 a_n9219_21993# a_n547_21993# AVSS sky130_fd_pr__res_high_po_0p35 l=17
X134 differential_pair_0.S differential_pair_0.PLUS resistor_op_tt_0.C AVSS sky130_fd_pr__nfet_01v8 ad=0.1305 pd=1.19 as=0.1305 ps=1.19 w=0.9 l=13
X135 a_n547_19433# a_3789_19433# AVSS sky130_fd_pr__res_high_po_0p35 l=17
X136 IPTAT IPTAT IPTAT digital_0.VDDE sky130_fd_pr__pfet_01v8 ad=0.145 pd=1.29 as=0 ps=0 w=1 l=0.15
X137 AVSS AVSS sky130_fd_pr__cap_mim_m3_1 l=17 w=17
X138 a_n13019_19765# a_n9219_19765# AVSS sky130_fd_pr__res_high_po_0p35 l=17
X139 AVDD ENA digital_0.VDDE DVDD sky130_fd_pr__pfet_01v8 ad=0.29 pd=2.29 as=0.29 ps=2.29 w=2 l=2
X140 digital_0.VDDE ENA AVDD DVDD sky130_fd_pr__pfet_01v8 ad=0.29 pd=2.29 as=0.29 ps=2.29 w=2 l=2
X141 AVSS AVSS AVSS sky130_fd_pr__pnp_05v5_W3p40L3p40
**devattr s=462400,2720 d=11121552,65696
X142 AVSS AVSS AVSS sky130_fd_pr__pnp_05v5_W3p40L3p40
**devattr s=462400,2720 d=11121552,65696
X143 AVSS a_n9219_20429# AVSS sky130_fd_pr__res_high_po_0p35 l=17
X144 digital_0.S1 digital_0.S2 AVSS sky130_fd_pr__res_high_po_0p35 l=8.4
X145 digital_0.S1 bjt_0.B AVSS sky130_fd_pr__res_high_po_0p35 l=8.4
X146 pmos_iptat_0.G pmos_iptat_0.G pmos_iptat_0.G AVSS sky130_fd_pr__nfet_01v8 ad=0.29 pd=2.58 as=0 ps=0 w=1 l=0.15
X147 digital_0.VDDE digital_0.VDDE digital_0.VDDE DVDD sky130_fd_pr__pfet_01v8 ad=0.58 pd=4.58 as=0 ps=0 w=2 l=0.15
X148 pmos_startup_0.D3 pmos_startup_0.D3 digital_0.VDDE digital_0.VDDE sky130_fd_pr__pfet_01v8 ad=0.145 pd=1.29 as=0.145 ps=1.29 w=1 l=10
X149 a_n4883_21163# a_n547_21329# AVSS sky130_fd_pr__res_high_po_0p35 l=17
X150 a_n547_20595# a_3789_20595# AVSS sky130_fd_pr__res_high_po_0p35 l=17
X151 IPTAT pmos_iptat_0.G digital_0.VDDE digital_0.VDDE sky130_fd_pr__pfet_01v8 ad=0.145 pd=1.29 as=0.145 ps=1.29 w=1 l=10
X152 AVSS AVSS AVSS sky130_fd_pr__pnp_05v5_W3p40L3p40
**devattr s=462400,2720 d=11121552,65696
X153 AVSS AVSS AVSS sky130_fd_pr__pnp_05v5_W3p40L3p40
**devattr s=462400,2720 d=11121552,65696
X154 a_3789_19433# AVSS AVSS sky130_fd_pr__res_high_po_0p35 l=17
X155 digital_0.S3 TRIM2 digital_0.S2 DVSS sky130_fd_pr__nfet_01v8_lvt ad=0.58 pd=4.29 as=0.58 ps=4.29 w=4 l=1
X156 digital_0.VDDE resistor_op_tt_0.C pmos_iptat_0.G digital_0.VDDE sky130_fd_pr__pfet_01v8 ad=0.145 pd=1.29 as=0.145 ps=1.29 w=1 l=10
X157 resistor_op_tt_0.D resistor_op_tt_0.D sky130_fd_pr__cap_mim_m3_1 l=17 w=17
X158 a_3789_20595# AVSS AVSS sky130_fd_pr__res_high_po_0p35 l=17
X159 pmos_startup_0.D2 a_n9219_19599# AVSS sky130_fd_pr__res_high_po_0p35 l=17
X160 AVSS bjt_0.A pmos_startup_0.D3 AVSS sky130_fd_pr__nfet_01v8 ad=0.145 pd=1.29 as=0.145 ps=1.29 w=1 l=1
X161 a_n13555_21993# a_n9219_21827# AVSS sky130_fd_pr__res_high_po_0p35 l=17
X162 AVSS AVSS AVSS sky130_fd_pr__pnp_05v5_W3p40L3p40
**devattr s=462400,2720 d=11121552,65696
X163 digital_0.SVBGSC digital_0.SVBGTC AVSS sky130_fd_pr__res_high_po_0p35 l=17
X164 digital_0.S1 digital_0.S1 AVSS sky130_fd_pr__res_high_po_0p35 l=8.4
X165 digital_0.S1 digital_0.S1 AVSS sky130_fd_pr__res_high_po_0p35 l=8.4
X166 digital_0.S3 digital_0.S3 digital_0.S3 DVSS sky130_fd_pr__nfet_01v8_lvt ad=1.16 pd=8.58 as=0 ps=0 w=4 l=0.15
X167 a_n13555_22491# a_n9219_22491# AVSS sky130_fd_pr__res_high_po_0p35 l=17
X168 pmos_current_bgr_2_0.D3 pmos_current_bgr_2_0.D3 pmos_current_bgr_2_0.D3 digital_0.VDDE sky130_fd_pr__pfet_01v8 ad=0.145 pd=1.29 as=1.16 ps=10.32 w=1 l=0.15
X169 differential_pair_0.S pmos_current_bgr_2_0.D3 AVSS AVSS sky130_fd_pr__nfet_01v8 ad=0.29 pd=2.58 as=0.29 ps=2.58 w=1 l=20
X170 VREF a_n13555_22325# AVSS sky130_fd_pr__res_high_po_0p35 l=17
X171 a_n4883_20263# a_n547_20263# AVSS sky130_fd_pr__res_high_po_0p35 l=17
X172 VREF VREF VREF digital_0.VDDE sky130_fd_pr__pfet_01v8 ad=0.145 pd=1.29 as=0 ps=0 w=1 l=0.15
X173 AVSS AVSS sky130_fd_pr__cap_mim_m3_1 l=17 w=17
X174 a_3789_21827# a_8125_21993# AVSS sky130_fd_pr__res_high_po_0p35 l=17
X175 a_n547_21163# a_3789_21329# AVSS sky130_fd_pr__res_high_po_0p35 l=17
X176 pmos_iptat_0.G resistor_op_tt_0.D sky130_fd_pr__cap_mim_m3_1 l=17 w=17
X177 VBGSC VBGSC VBGSC DVSS sky130_fd_pr__nfet_01v8_lvt ad=0.29 pd=2.58 as=1.16 ps=10.32 w=1 l=0.15
X178 a_n9219_21329# a_n4883_21163# AVSS sky130_fd_pr__res_high_po_0p35 l=17
X179 a_n9219_20997# a_n4883_20997# AVSS sky130_fd_pr__res_high_po_0p35 l=17
X180 bjt_0.B digital_0.S1 AVSS sky130_fd_pr__res_high_po_0p35 l=8.4
X181 digital_0.S2 digital_0.S1 AVSS sky130_fd_pr__res_high_po_0p35 l=8.4
X182 digital_0.VDDE digital_0.VDDE digital_0.VDDE digital_0.VDDE sky130_fd_pr__pfet_01v8 ad=0.145 pd=1.29 as=0 ps=0 w=1 l=10
X183 digital_0.S1 bjt_0.B AVSS sky130_fd_pr__res_high_po_0p35 l=8.4
X184 AVSS a_220_15663# AVSS sky130_fd_pr__res_high_po_0p35 l=4.5
X185 a_n4883_21495# a_n4883_21495# AVSS sky130_fd_pr__res_high_po_0p35 l=17
X186 a_3789_21163# a_8125_21329# AVSS sky130_fd_pr__res_high_po_0p35 l=17
X187 VBGTC VENA digital_0.SVBGTC DVSS sky130_fd_pr__nfet_01v8_lvt ad=0.145 pd=1.29 as=0.145 ps=1.29 w=1 l=1
X188 pmos_current_bgr_0.D1 a_n13555_22159# AVSS sky130_fd_pr__res_high_po_0p35 l=17
X189 a_n4883_20097# a_n547_20097# AVSS sky130_fd_pr__res_high_po_0p35 l=17
X190 digital_0.S1 digital_0.S1 AVSS sky130_fd_pr__res_high_po_0p35 l=8.4
X191 bjt_0.B digital_0.S1 AVSS sky130_fd_pr__res_high_po_0p35 l=8.4
X192 digital_0.S2 digital_0.S2 digital_0.S2 DVSS sky130_fd_pr__nfet_01v8_lvt ad=1.16 pd=8.58 as=0 ps=0 w=4 l=0.15
X193 AVSS AVSS AVSS sky130_fd_pr__pnp_05v5_W3p40L3p40
**devattr s=462400,2720 d=11121552,65696
X194 AVSS a_n9219_19433# AVSS sky130_fd_pr__res_high_po_0p35 l=17
X195 digital_0.S1 digital_0.S2 AVSS sky130_fd_pr__res_high_po_0p35 l=8.4
X196 digital_0.S1 bjt_0.B AVSS sky130_fd_pr__res_high_po_0p35 l=8.4
X197 AVSS AVSS sky130_fd_pr__cap_mim_m3_1 l=17 w=17
X198 AVSS AVSS bjt_0.B sky130_fd_pr__pnp_05v5_W3p40L3p40
**devattr s=462400,2720 d=11121552,65696
X199 bjt_0.B bjt_0.B AVSS sky130_fd_pr__res_high_po_0p35 l=8.4
X200 resistor_op_tt_0.D a_220_14999# AVSS sky130_fd_pr__res_high_po_0p35 l=4.5
X201 a_n547_20263# a_3789_20263# AVSS sky130_fd_pr__res_high_po_0p35 l=17
X202 VREF VREF VREF digital_0.VDDE sky130_fd_pr__pfet_01v8 ad=0.29 pd=2.58 as=0 ps=0 w=1 l=0.15
X203 VREF pmos_iptat_0.G digital_0.VDDE digital_0.VDDE sky130_fd_pr__pfet_01v8 ad=0.145 pd=1.29 as=0.145 ps=1.29 w=1 l=10
X204 a_n9219_21495# a_n547_21495# AVSS sky130_fd_pr__res_high_po_0p35 l=17
X205 AVSS a_n9219_20595# AVSS sky130_fd_pr__res_high_po_0p35 l=17
X206 digital_0.S2 TRIM2 digital_0.S3 DVSS sky130_fd_pr__nfet_01v8_lvt ad=0.58 pd=4.29 as=0.58 ps=4.29 w=4 l=1
X207 pmos_startup_0.D2 pmos_startup_0.D2 pmos_startup_0.D2 digital_0.VDDE sky130_fd_pr__pfet_01v8 ad=0.29 pd=2.58 as=0.58 ps=5.16 w=1 l=0.15
X208 differential_pair_0.S differential_pair_0.S differential_pair_0.S AVSS sky130_fd_pr__nfet_01v8 ad=0.29 pd=2.58 as=0 ps=0 w=1 l=0.15
X209 digital_0.D3 TRIM3 digital_0.S3 DVSS sky130_fd_pr__nfet_01v8_lvt ad=0.58 pd=4.29 as=0.58 ps=4.29 w=4 l=1
X210 IPTAT IPTAT IPTAT digital_0.VDDE sky130_fd_pr__pfet_01v8 ad=0.29 pd=2.58 as=0 ps=0 w=1 l=0.15
X211 digital_0.S2 digital_0.S3 AVSS sky130_fd_pr__res_high_po_0p35 l=8.4
X212 digital_0.S1 TRIM0 bjt_0.B DVSS sky130_fd_pr__nfet_01v8_lvt ad=0.58 pd=4.29 as=0.58 ps=4.29 w=4 l=1
X213 digital_0.VDDE resistor_op_tt_0.C pmos_iptat_0.G digital_0.VDDE sky130_fd_pr__pfet_01v8 ad=0.145 pd=1.29 as=0.145 ps=1.29 w=1 l=10
X214 pmos_current_bgr_2_0.D4 pmos_current_bgr_2_0.D4 pmos_current_bgr_2_0.D4 AVSS sky130_fd_pr__nfet_01v8 ad=0.29 pd=2.58 as=0 ps=0 w=1 l=0.15
X215 digital_0.S3 digital_0.S3 digital_0.S3 DVSS sky130_fd_pr__nfet_01v8_lvt ad=0.58 pd=4.29 as=0 ps=0 w=4 l=0.15
X216 a_220_15663# AVSS AVSS sky130_fd_pr__res_high_po_0p35 l=4.5
X217 a_3789_20263# a_8125_20263# AVSS sky130_fd_pr__res_high_po_0p35 l=17
X218 resistor_op_tt_0.C resistor_op_tt_0.C resistor_op_tt_0.C AVSS sky130_fd_pr__nfet_01v8 ad=0.261 pd=2.38 as=0 ps=0 w=0.9 l=0.15
X219 a_n547_21495# a_3789_21661# AVSS sky130_fd_pr__res_high_po_0p35 l=17
X220 AVSS AVSS sky130_fd_pr__cap_mim_m3_1 l=17 w=17
X221 AVSS AVSS sky130_fd_pr__cap_mim_m3_1 l=17 w=17
X222 AVSS AVSS bjt_0.B sky130_fd_pr__pnp_05v5_W3p40L3p40
**devattr s=462400,2720 d=11121552,65696
X223 a_n547_20097# a_3789_20097# AVSS sky130_fd_pr__res_high_po_0p35 l=17
X224 digital_0.S2 digital_0.S1 AVSS sky130_fd_pr__res_high_po_0p35 l=8.4
X225 a_n13555_21827# a_n9219_21993# AVSS sky130_fd_pr__res_high_po_0p35 l=17
X226 bjt_0.B TRIM0 digital_0.S1 DVSS sky130_fd_pr__nfet_01v8_lvt ad=0.58 pd=4.29 as=0.58 ps=4.29 w=4 l=1
X227 AVSS AVSS AVSS sky130_fd_pr__pnp_05v5_W3p40L3p40
**devattr s=462400,2720 d=11121552,65696
X228 VBGSC VBGSC VBGSC DVSS sky130_fd_pr__nfet_01v8_lvt ad=0.145 pd=1.29 as=0 ps=0 w=1 l=0.15
X229 VBGTC VBGTC VBGTC DVSS sky130_fd_pr__nfet_01v8_lvt ad=0.145 pd=1.29 as=0 ps=0 w=1 l=0.15
X230 a_n17355_21661# a_n13555_21827# AVSS sky130_fd_pr__res_high_po_0p35 l=17
X231 AVSS a_n13555_22491# AVSS sky130_fd_pr__res_high_po_0p35 l=17
X232 a_3789_21495# a_8125_21329# AVSS sky130_fd_pr__res_high_po_0p35 l=17
X233 AVSS pmos_current_bgr_2_0.D3 pmos_current_bgr_2_0.D3 AVSS sky130_fd_pr__nfet_01v8 ad=0.29 pd=2.58 as=0.29 ps=2.58 w=1 l=20
X234 a_220_15165# resistor_op_tt_0.A AVSS sky130_fd_pr__res_high_po_0p35 l=4.5
X235 a_n13555_21163# a_n9219_21329# AVSS sky130_fd_pr__res_high_po_0p35 l=17
X236 a_3789_20097# a_8125_19931# AVSS sky130_fd_pr__res_high_po_0p35 l=17
X237 digital_0.SVBGTC VENA VBGTC DVSS sky130_fd_pr__nfet_01v8_lvt ad=0.145 pd=1.29 as=0.145 ps=1.29 w=1 l=1
X238 a_n4883_21495# a_3789_21495# AVSS sky130_fd_pr__res_high_po_0p35 l=17
X239 bjt_0.B digital_0.S1 AVSS sky130_fd_pr__res_high_po_0p35 l=8.4
X240 digital_0.VDDE pmos_iptat_0.G pmos_current_bgr_0.D1 digital_0.VDDE sky130_fd_pr__pfet_01v8 ad=0.145 pd=1.29 as=0.145 ps=1.29 w=1 l=10
X241 pmos_current_bgr_2_0.D3 pmos_current_bgr_2_0.D3 AVSS AVSS sky130_fd_pr__nfet_01v8 ad=0.29 pd=2.58 as=0.29 ps=2.58 w=1 l=20
X242 AVSS a_220_15165# AVSS sky130_fd_pr__res_high_po_0p35 l=4.5
X243 digital_0.S1 bjt_0.B AVSS sky130_fd_pr__res_high_po_0p35 l=8.4
X244 digital_0.S2 digital_0.S2 digital_0.S2 DVSS sky130_fd_pr__nfet_01v8_lvt ad=0.58 pd=4.29 as=0 ps=0 w=4 l=0.15
X245 differential_pair_0.D4 differential_pair_0.D4 differential_pair_0.D4 AVSS sky130_fd_pr__nfet_01v8 ad=0.1305 pd=1.19 as=0 ps=0 w=0.9 l=0.15
X246 bjt_0.A pmos_startup_0.D2 digital_0.VDDE digital_0.VDDE sky130_fd_pr__pfet_01v8 ad=0.145 pd=1.29 as=0.145 ps=1.29 w=1 l=10
X247 pmos_iptat_0.G pmos_iptat_0.G pmos_iptat_0.G digital_0.VDDE sky130_fd_pr__pfet_01v8 ad=0.145 pd=1.29 as=0 ps=0 w=1 l=0.15
X248 bjt_0.B digital_0.S1 AVSS sky130_fd_pr__res_high_po_0p35 l=8.4
X249 a_3789_21661# a_8125_21163# AVSS sky130_fd_pr__res_high_po_0p35 l=17
X250 digital_0.S1 digital_0.S1 AVSS sky130_fd_pr__res_high_po_0p35 l=8.4
X251 bjt_0.B digital_0.S1 AVSS sky130_fd_pr__res_high_po_0p35 l=8.4
X252 pmos_current_bgr_0.D1 pmos_iptat_0.G digital_0.VDDE digital_0.VDDE sky130_fd_pr__pfet_01v8 ad=0.145 pd=1.29 as=0.145 ps=1.29 w=1 l=10
X253 resistor_op_tt_0.C resistor_op_tt_0.C resistor_op_tt_0.C digital_0.VDDE sky130_fd_pr__pfet_01v8 ad=0.145 pd=1.29 as=1.16 ps=10.32 w=1 l=0.15
X254 AVSS AVSS bjt_0.B sky130_fd_pr__pnp_05v5_W3p40L3p40
**devattr s=462400,2720 d=11121552,65696
X255 bjt_0.B bjt_0.B AVSS sky130_fd_pr__res_high_po_0p35 l=8.4
X256 bjt_0.B bjt_0.B AVSS sky130_fd_pr__res_high_po_0p35 l=8.4
X257 pmos_current_bgr_2_0.D4 pmos_current_bgr_2_0.D4 digital_0.VDDE digital_0.VDDE sky130_fd_pr__pfet_01v8 ad=0.145 pd=1.29 as=0.145 ps=1.29 w=1 l=10
X258 AVSS a_220_15165# AVSS sky130_fd_pr__res_high_po_0p35 l=4.5
X259 resistor_op_tt_0.D a_220_14999# AVSS sky130_fd_pr__res_high_po_0p35 l=4.5
X260 a_n9219_22159# a_n4883_22325# AVSS sky130_fd_pr__res_high_po_0p35 l=17
X261 a_n4883_21329# a_n547_21163# AVSS sky130_fd_pr__res_high_po_0p35 l=17
X262 a_n4883_20997# a_n547_20997# AVSS sky130_fd_pr__res_high_po_0p35 l=17
X263 a_n13019_20097# a_n9219_20263# AVSS sky130_fd_pr__res_high_po_0p35 l=17
X264 digital_0.S1 digital_0.S2 AVSS sky130_fd_pr__res_high_po_0p35 l=8.4
X265 AVSS AVSS AVSS sky130_fd_pr__pnp_05v5_W3p40L3p40
**devattr s=462400,2720 d=11121552,65696
X266 digital_0.S1 digital_0.S2 AVSS sky130_fd_pr__res_high_po_0p35 l=8.4
X267 a_220_14999# resistor_op_tt_0.C AVSS sky130_fd_pr__res_high_po_0p35 l=4.5
X268 differential_pair_0.D4 differential_pair_0.D4 digital_0.VDDE digital_0.VDDE sky130_fd_pr__pfet_01v8 ad=0.145 pd=1.29 as=0.145 ps=1.29 w=1 l=10
X269 digital_0.S1 digital_0.S1 digital_0.S1 DVSS sky130_fd_pr__nfet_01v8_lvt ad=0.58 pd=4.29 as=0 ps=0 w=4 l=0.15
X270 AVSS AVSS bjt_0.B sky130_fd_pr__pnp_05v5_W3p40L3p40
**devattr s=462400,2720 d=11121552,65696
X271 digital_0.S3 digital_0.S2 AVSS sky130_fd_pr__res_high_po_0p35 l=8.4
X272 pmos_iptat_0.G resistor_op_tt_0.C digital_0.VDDE digital_0.VDDE sky130_fd_pr__pfet_01v8 ad=0.145 pd=1.29 as=0.145 ps=1.29 w=1 l=10
X273 digital_0.S3 TRIM2 digital_0.S2 DVSS sky130_fd_pr__nfet_01v8_lvt ad=0.58 pd=4.29 as=0.58 ps=4.29 w=4 l=1
X274 a_n13555_21495# a_n9219_21661# AVSS sky130_fd_pr__res_high_po_0p35 l=17
X275 pmos_current_bgr_2_0.D3 pmos_current_bgr_2_0.D3 pmos_current_bgr_2_0.D3 AVSS sky130_fd_pr__nfet_01v8 ad=0.29 pd=2.58 as=0 ps=0 w=1 l=0.15
X276 a_n9219_22325# a_n4883_22159# AVSS sky130_fd_pr__res_high_po_0p35 l=17
X277 a_n13019_20097# a_n9219_20097# AVSS sky130_fd_pr__res_high_po_0p35 l=17
X278 a_n9219_19931# a_n4883_19931# AVSS sky130_fd_pr__res_high_po_0p35 l=17
X279 AVSS AVSS AVSS sky130_fd_pr__pnp_05v5_W3p40L3p40
**devattr s=462400,2720 d=11121552,65696
X280 AVSS AVSS bjt_0.B sky130_fd_pr__pnp_05v5_W3p40L3p40
**devattr s=462400,2720 d=11121552,65696
X281 AVSS pmos_current_bgr_2_0.D3 differential_pair_0.S AVSS sky130_fd_pr__nfet_01v8 ad=0.29 pd=2.58 as=0.29 ps=2.58 w=1 l=20
X282 digital_0.VDDE pmos_iptat_0.G VREF digital_0.VDDE sky130_fd_pr__pfet_01v8 ad=0.145 pd=1.29 as=0.145 ps=1.29 w=1 l=10
X283 pmos_current_bgr_2_0.D3 pmos_current_bgr_2_0.D3 pmos_current_bgr_2_0.D3 digital_0.VDDE sky130_fd_pr__pfet_01v8 ad=0.29 pd=2.58 as=0 ps=0 w=1 l=0.15
X284 digital_0.VDDE pmos_current_bgr_2_0.D4 pmos_current_bgr_2_0.D3 digital_0.VDDE sky130_fd_pr__pfet_01v8 ad=0.145 pd=1.29 as=0.145 ps=1.29 w=1 l=10
X285 VBGSC VENA digital_0.SVBGSC DVSS sky130_fd_pr__nfet_01v8_lvt ad=0.145 pd=1.29 as=0.145 ps=1.29 w=1 l=1
X286 digital_0.S3 TRIM3 digital_0.D3 DVSS sky130_fd_pr__nfet_01v8_lvt ad=0.58 pd=4.29 as=0.58 ps=4.29 w=4 l=1
X287 digital_0.D3 digital_0.D3 digital_0.D3 DVSS sky130_fd_pr__nfet_01v8_lvt ad=1.16 pd=8.58 as=0 ps=0 w=4 l=0.15
X288 a_220_14999# resistor_op_tt_0.C AVSS sky130_fd_pr__res_high_po_0p35 l=4.5
X289 a_n17355_21495# a_n13555_21993# AVSS sky130_fd_pr__res_high_po_0p35 l=17
X290 digital_0.S3 digital_0.S3 digital_0.S3 DVSS sky130_fd_pr__nfet_01v8_lvt ad=1.16 pd=8.58 as=0 ps=0 w=4 l=0.15
X291 resistor_op_tt_0.C differential_pair_0.PLUS differential_pair_0.S AVSS sky130_fd_pr__nfet_01v8 ad=0.1305 pd=1.19 as=0.1305 ps=1.19 w=0.9 l=13
X292 a_220_15165# resistor_op_tt_0.A AVSS sky130_fd_pr__res_high_po_0p35 l=4.5
X293 digital_0.VDDE pmos_startup_0.D3 pmos_startup_0.D2 digital_0.VDDE sky130_fd_pr__pfet_01v8 ad=0.145 pd=1.29 as=0.145 ps=1.29 w=1 l=10
X294 digital_0.VDDE pmos_iptat_0.G IPTAT digital_0.VDDE sky130_fd_pr__pfet_01v8 ad=0.145 pd=1.29 as=0.145 ps=1.29 w=1 l=10
X295 a_n547_21329# a_3789_21163# AVSS sky130_fd_pr__res_high_po_0p35 l=17
X296 a_n547_20997# a_3789_20997# AVSS sky130_fd_pr__res_high_po_0p35 l=17
X297 digital_0.S1 bjt_0.B AVSS sky130_fd_pr__res_high_po_0p35 l=8.4
X298 AVSS a_220_14833# AVSS sky130_fd_pr__res_high_po_0p35 l=4.5
X299 a_n13555_21661# a_n9219_21495# AVSS sky130_fd_pr__res_high_po_0p35 l=17
X300 bjt_0.B bjt_0.B AVSS sky130_fd_pr__res_high_po_0p35 l=8.4
X301 pmos_iptat_0.G resistor_op_tt_0.D sky130_fd_pr__cap_mim_m3_1 l=17 w=17
X302 a_n9219_19765# a_n4883_19765# AVSS sky130_fd_pr__res_high_po_0p35 l=17
X303 AVSS AVSS sky130_fd_pr__cap_mim_m3_1 l=17 w=17
X304 bjt_0.A a_n13555_21329# AVSS sky130_fd_pr__res_high_po_0p35 l=17
X305 a_n9219_20429# a_n4883_20429# AVSS sky130_fd_pr__res_high_po_0p35 l=17
X306 resistor_op_tt_0.C resistor_op_tt_0.C resistor_op_tt_0.C digital_0.VDDE sky130_fd_pr__pfet_01v8 ad=0.29 pd=2.58 as=0 ps=0 w=1 l=0.15
X307 digital_0.VDDE differential_pair_0.D4 resistor_op_tt_0.C digital_0.VDDE sky130_fd_pr__pfet_01v8 ad=0.145 pd=1.29 as=0.145 ps=1.29 w=1 l=10
X308 AVSS AVSS bjt_0.A sky130_fd_pr__pnp_05v5_W3p40L3p40
**devattr s=462400,2720 d=11121552,65696
X309 bjt_0.B digital_0.S1 AVSS sky130_fd_pr__res_high_po_0p35 l=8.4
X310 pmos_iptat_0.G pmos_iptat_0.G pmos_iptat_0.G digital_0.VDDE sky130_fd_pr__pfet_01v8 ad=0.145 pd=1.29 as=0 ps=0 w=1 l=0.15
X311 digital_0.S2 TRIM1 digital_0.S1 DVSS sky130_fd_pr__nfet_01v8_lvt ad=0.58 pd=4.29 as=0.58 ps=4.29 w=4 l=1
X312 digital_0.VDDE digital_0.VDDE digital_0.VDDE digital_0.VDDE sky130_fd_pr__pfet_01v8 ad=0.29 pd=2.58 as=0 ps=0 w=1 l=0.15
X313 a_3789_21329# a_8125_21163# AVSS sky130_fd_pr__res_high_po_0p35 l=17
X314 a_3789_20997# AVSS AVSS sky130_fd_pr__res_high_po_0p35 l=17