* NGSPICE file created from bgr_op5_block_rev1.ext - technology: sky130A

.subckt sky130_fd_pr__nfet_01v8_CJRLGR a_n287_n255# a_n229_n343# a_229_n255# a_229_55#
+ a_n29_n255# a_n287_55# a_n29_55# a_29_n343# VSUBS
X0 a_229_55# a_29_n343# a_n29_55# VSUBS sky130_fd_pr__nfet_01v8 ad=0.29 pd=2.58 as=0.145 ps=1.29 w=1 l=1
X1 a_n29_n255# a_n229_n343# a_n287_n255# VSUBS sky130_fd_pr__nfet_01v8 ad=0.145 pd=1.29 as=0.29 ps=2.58 w=1 l=1
X2 a_229_n255# a_29_n343# a_n29_n255# VSUBS sky130_fd_pr__nfet_01v8 ad=0.29 pd=2.58 as=0.145 ps=1.29 w=1 l=1
X3 a_n29_55# a_n229_n343# a_n287_55# VSUBS sky130_fd_pr__nfet_01v8 ad=0.145 pd=1.29 as=0.29 ps=2.58 w=1 l=1
C0 a_29_n343# a_n229_n343# 0.14779f
C1 a_229_n255# VSUBS 0.114051f
C2 a_n287_n255# VSUBS 0.114051f
C3 a_229_55# VSUBS 0.114051f
C4 a_n287_55# VSUBS 0.114051f
C5 a_29_n343# VSUBS 0.824774f
C6 a_n229_n343# VSUBS 0.824774f
.ends

.subckt sky130_fd_pr__nfet_01v8_6H9P4D a_n73_n100# a_15_n100# a_n15_n126# VSUBS
X0 a_15_n100# a_n15_n126# a_n73_n100# VSUBS sky130_fd_pr__nfet_01v8 ad=0.29 pd=2.58 as=0.29 ps=2.58 w=1 l=0.15
C0 a_n73_n100# a_15_n100# 0.162113f
C1 a_15_n100# VSUBS 0.118371f
C2 a_n73_n100# VSUBS 0.118371f
.ends

.subckt nmos_startup AVSS D1 G1
Xsky130_fd_pr__nfet_01v8_CJRLGR_0 D1 G1 D1 D1 AVSS D1 AVSS G1 AVSS sky130_fd_pr__nfet_01v8_CJRLGR
Xsky130_fd_pr__nfet_01v8_6H9P4D_0 D1 D1 D1 AVSS sky130_fd_pr__nfet_01v8_6H9P4D
Xsky130_fd_pr__nfet_01v8_6H9P4D_1 D1 D1 D1 AVSS sky130_fd_pr__nfet_01v8_6H9P4D
Xsky130_fd_pr__nfet_01v8_6H9P4D_3 D1 D1 D1 AVSS sky130_fd_pr__nfet_01v8_6H9P4D
Xsky130_fd_pr__nfet_01v8_6H9P4D_4 D1 D1 D1 AVSS sky130_fd_pr__nfet_01v8_6H9P4D
C0 D1 G1 0.466067f
C1 D1 AVSS 0.381248f
C2 AVSS G1 0.758576f
C3 AVSS 0 -0.306076f
C4 D1 0 1.748479f
C5 G1 0 1.308701f
.ends

.subckt sky130_fd_pr__res_high_po_0p35_9NXREG a_380_2220# a_48_1684# a_380_6556# a_546_n2652#
+ a_546_n6988# a_n118_10356# a_214_6020# a_n284_n6452# a_n616_2220# a_n616_6556# a_n616_n6452#
+ a_214_n10788# a_214_2220# a_n284_n2652# a_380_n2116# a_n284_n6988# a_214_6556# a_546_1684#
+ a_n616_n2652# a_n616_n10788# a_48_6020# a_n616_n6988# a_380_10356# a_n118_n6452#
+ a_546_n10788# a_48_2220# a_48_6556# a_n450_n2116# a_n450_1684# a_n118_n2652# a_214_n2116#
+ a_n118_n6988# a_546_6020# a_n450_n10788# a_n450_10356# a_214_10356# a_n284_1684#
+ a_380_n6452# a_380_n10788# a_546_2220# a_546_6556# a_n118_n10788# a_380_n2652# a_n450_6020#
+ a_48_n2116# a_380_n6988# a_n118_1684# a_n450_n6452# a_48_10356# a_n450_2220# a_214_n6452#
+ a_n284_6020# a_n450_6556# a_546_n2116# a_n450_n2652# a_n450_n6988# a_n284_2220#
+ a_380_1684# a_214_n2652# a_546_10356# a_214_n6988# a_n284_6556# a_n118_6020# a_n616_1684#
+ a_n284_n2116# a_48_n6452# a_n284_n10788# a_n616_n2116# a_n284_10356# a_n746_n10918#
+ a_n118_2220# a_214_1684# a_n118_6556# a_n616_10356# a_48_n2652# a_48_n6988# a_380_6020#
+ a_546_n6452# a_n616_6020# a_n118_n2116# a_48_n10788#
X0 a_n284_10356# a_n284_6556# a_n746_n10918# sky130_fd_pr__res_high_po_0p35 l=17
X1 a_380_n6988# a_380_n10788# a_n746_n10918# sky130_fd_pr__res_high_po_0p35 l=17
X2 a_n450_6020# a_n450_2220# a_n746_n10918# sky130_fd_pr__res_high_po_0p35 l=17
X3 a_48_6020# a_48_2220# a_n746_n10918# sky130_fd_pr__res_high_po_0p35 l=17
X4 a_48_10356# a_48_6556# a_n746_n10918# sky130_fd_pr__res_high_po_0p35 l=17
X5 a_n118_n6988# a_n118_n10788# a_n746_n10918# sky130_fd_pr__res_high_po_0p35 l=17
X6 a_n450_10356# a_n450_6556# a_n746_n10918# sky130_fd_pr__res_high_po_0p35 l=17
X7 a_214_n2652# a_214_n6452# a_n746_n10918# sky130_fd_pr__res_high_po_0p35 l=17
X8 a_n118_6020# a_n118_2220# a_n746_n10918# sky130_fd_pr__res_high_po_0p35 l=17
X9 a_n118_10356# a_n118_6556# a_n746_n10918# sky130_fd_pr__res_high_po_0p35 l=17
X10 a_214_1684# a_214_n2116# a_n746_n10918# sky130_fd_pr__res_high_po_0p35 l=17
X11 a_n450_n6988# a_n450_n10788# a_n746_n10918# sky130_fd_pr__res_high_po_0p35 l=17
X12 a_n118_n2652# a_n118_n6452# a_n746_n10918# sky130_fd_pr__res_high_po_0p35 l=17
X13 a_n284_n6988# a_n284_n10788# a_n746_n10918# sky130_fd_pr__res_high_po_0p35 l=17
X14 a_n118_1684# a_n118_n2116# a_n746_n10918# sky130_fd_pr__res_high_po_0p35 l=17
X15 a_n616_n2652# a_n616_n6452# a_n746_n10918# sky130_fd_pr__res_high_po_0p35 l=17
X16 a_n616_n6988# a_n616_n10788# a_n746_n10918# sky130_fd_pr__res_high_po_0p35 l=17
X17 a_n616_6020# a_n616_2220# a_n746_n10918# sky130_fd_pr__res_high_po_0p35 l=17
X18 a_380_6020# a_380_2220# a_n746_n10918# sky130_fd_pr__res_high_po_0p35 l=17
X19 a_48_n6988# a_48_n10788# a_n746_n10918# sky130_fd_pr__res_high_po_0p35 l=17
X20 a_n616_10356# a_n616_6556# a_n746_n10918# sky130_fd_pr__res_high_po_0p35 l=17
X21 a_380_10356# a_380_6556# a_n746_n10918# sky130_fd_pr__res_high_po_0p35 l=17
X22 a_380_n2652# a_380_n6452# a_n746_n10918# sky130_fd_pr__res_high_po_0p35 l=17
X23 a_546_n2652# a_546_n6452# a_n746_n10918# sky130_fd_pr__res_high_po_0p35 l=17
X24 a_n616_1684# a_n616_n2116# a_n746_n10918# sky130_fd_pr__res_high_po_0p35 l=17
X25 a_214_n6988# a_214_n10788# a_n746_n10918# sky130_fd_pr__res_high_po_0p35 l=17
X26 a_546_6020# a_546_2220# a_n746_n10918# sky130_fd_pr__res_high_po_0p35 l=17
X27 a_380_1684# a_380_n2116# a_n746_n10918# sky130_fd_pr__res_high_po_0p35 l=17
X28 a_546_1684# a_546_n2116# a_n746_n10918# sky130_fd_pr__res_high_po_0p35 l=17
X29 a_546_10356# a_546_6556# a_n746_n10918# sky130_fd_pr__res_high_po_0p35 l=17
X30 a_n450_n2652# a_n450_n6452# a_n746_n10918# sky130_fd_pr__res_high_po_0p35 l=17
X31 a_n284_n2652# a_n284_n6452# a_n746_n10918# sky130_fd_pr__res_high_po_0p35 l=17
X32 a_48_n2652# a_48_n6452# a_n746_n10918# sky130_fd_pr__res_high_po_0p35 l=17
X33 a_214_6020# a_214_2220# a_n746_n10918# sky130_fd_pr__res_high_po_0p35 l=17
X34 a_546_n6988# a_546_n10788# a_n746_n10918# sky130_fd_pr__res_high_po_0p35 l=17
X35 a_214_10356# a_214_6556# a_n746_n10918# sky130_fd_pr__res_high_po_0p35 l=17
X36 a_n284_6020# a_n284_2220# a_n746_n10918# sky130_fd_pr__res_high_po_0p35 l=17
X37 a_n450_1684# a_n450_n2116# a_n746_n10918# sky130_fd_pr__res_high_po_0p35 l=17
X38 a_n284_1684# a_n284_n2116# a_n746_n10918# sky130_fd_pr__res_high_po_0p35 l=17
X39 a_48_1684# a_48_n2116# a_n746_n10918# sky130_fd_pr__res_high_po_0p35 l=17
C0 a_n118_n6452# a_48_n6452# 0.296258f
C1 a_214_n2652# a_380_n2652# 0.296258f
C2 a_48_n2116# a_214_n2116# 0.296258f
C3 a_214_2220# a_48_2220# 0.296258f
C4 a_214_n6988# a_48_n6988# 0.296258f
C5 a_n450_n2652# a_n616_n2652# 0.296258f
C6 a_n450_10356# a_n616_10356# 0.296258f
C7 a_n450_n6988# a_n284_n6988# 0.296258f
C8 a_546_6556# a_380_6556# 0.296258f
C9 a_n118_6556# a_48_6556# 0.296258f
C10 a_n118_10356# a_n284_10356# 0.296258f
C11 a_n450_10356# a_n284_10356# 0.296258f
C12 a_214_n10788# a_380_n10788# 0.296258f
C13 a_380_n2116# a_214_n2116# 0.296258f
C14 a_380_10356# a_546_10356# 0.296258f
C15 a_n450_n6988# a_n616_n6988# 0.296258f
C16 a_n284_6556# a_n118_6556# 0.296258f
C17 a_214_6556# a_380_6556# 0.296258f
C18 a_n118_6020# a_n284_6020# 0.296258f
C19 a_n118_n6988# a_48_n6988# 0.296258f
C20 a_n284_6020# a_n450_6020# 0.296258f
C21 a_n118_n2116# a_48_n2116# 0.296258f
C22 a_380_10356# a_214_10356# 0.296258f
C23 a_n450_n2116# a_n284_n2116# 0.296258f
C24 a_n284_6556# a_n450_6556# 0.296258f
C25 a_546_2220# a_380_2220# 0.296258f
C26 a_n284_n2116# a_n118_n2116# 0.296258f
C27 a_380_2220# a_214_2220# 0.296258f
C28 a_48_6020# a_214_6020# 0.296258f
C29 a_546_n6988# a_380_n6988# 0.296258f
C30 a_48_n2652# a_214_n2652# 0.296258f
C31 a_n616_6556# a_n450_6556# 0.296258f
C32 a_214_10356# a_48_10356# 0.296258f
C33 a_214_1684# a_48_1684# 0.296258f
C34 a_n616_n10788# a_n450_n10788# 0.296258f
C35 a_214_n6452# a_48_n6452# 0.296258f
C36 a_214_1684# a_380_1684# 0.296258f
C37 a_n450_n6452# a_n616_n6452# 0.296258f
C38 a_214_n6988# a_380_n6988# 0.296258f
C39 a_546_n2652# a_380_n2652# 0.296258f
C40 a_214_n6452# a_380_n6452# 0.296258f
C41 a_n450_1684# a_n616_1684# 0.296258f
C42 a_n450_n2652# a_n284_n2652# 0.296258f
C43 a_n118_10356# a_48_10356# 0.296258f
C44 a_n450_n2116# a_n616_n2116# 0.296258f
C45 a_380_6020# a_214_6020# 0.296258f
C46 a_n450_2220# a_n616_2220# 0.296258f
C47 a_n118_6020# a_48_6020# 0.296258f
C48 a_n118_2220# a_48_2220# 0.296258f
C49 a_n450_n6452# a_n284_n6452# 0.296258f
C50 a_n284_1684# a_n118_1684# 0.296258f
C51 a_n450_2220# a_n284_2220# 0.296258f
C52 a_546_1684# a_380_1684# 0.296258f
C53 a_n118_n10788# a_n284_n10788# 0.296258f
C54 a_n118_n2652# a_n284_n2652# 0.296258f
C55 a_n118_2220# a_n284_2220# 0.296258f
C56 a_48_n10788# a_n118_n10788# 0.296258f
C57 a_380_n6452# a_546_n6452# 0.296258f
C58 a_n450_n10788# a_n284_n10788# 0.296258f
C59 a_n616_6020# a_n450_6020# 0.296258f
C60 a_546_6020# a_380_6020# 0.296258f
C61 a_546_n10788# a_380_n10788# 0.296258f
C62 a_n118_n2652# a_48_n2652# 0.296258f
C63 a_48_1684# a_n118_1684# 0.296258f
C64 a_214_6556# a_48_6556# 0.296258f
C65 a_n118_n6988# a_n284_n6988# 0.296258f
C66 a_n450_1684# a_n284_1684# 0.296258f
C67 a_48_n10788# a_214_n10788# 0.296258f
C68 a_n284_n6452# a_n118_n6452# 0.296258f
C69 a_546_n2116# a_380_n2116# 0.296258f
C70 a_546_n10788# a_n746_n10918# 0.387223f
C71 a_546_n6988# a_n746_n10918# 0.356961f
C72 a_380_n10788# a_n746_n10918# 0.17691f
C73 a_380_n6988# a_n746_n10918# 0.146647f
C74 a_214_n10788# a_n746_n10918# 0.17691f
C75 a_214_n6988# a_n746_n10918# 0.146647f
C76 a_48_n10788# a_n746_n10918# 0.17691f
C77 a_48_n6988# a_n746_n10918# 0.146647f
C78 a_n118_n10788# a_n746_n10918# 0.17691f
C79 a_n118_n6988# a_n746_n10918# 0.146647f
C80 a_n284_n10788# a_n746_n10918# 0.17691f
C81 a_n284_n6988# a_n746_n10918# 0.146647f
C82 a_n450_n10788# a_n746_n10918# 0.17691f
C83 a_n450_n6988# a_n746_n10918# 0.146647f
C84 a_n616_n10788# a_n746_n10918# 0.387223f
C85 a_n616_n6988# a_n746_n10918# 0.356961f
C86 a_546_n6452# a_n746_n10918# 0.356961f
C87 a_546_n2652# a_n746_n10918# 0.356961f
C88 a_380_n6452# a_n746_n10918# 0.146647f
C89 a_380_n2652# a_n746_n10918# 0.146647f
C90 a_214_n6452# a_n746_n10918# 0.146647f
C91 a_214_n2652# a_n746_n10918# 0.146647f
C92 a_48_n6452# a_n746_n10918# 0.146647f
C93 a_48_n2652# a_n746_n10918# 0.146647f
C94 a_n118_n6452# a_n746_n10918# 0.146647f
C95 a_n118_n2652# a_n746_n10918# 0.146647f
C96 a_n284_n6452# a_n746_n10918# 0.146647f
C97 a_n284_n2652# a_n746_n10918# 0.146647f
C98 a_n450_n6452# a_n746_n10918# 0.146647f
C99 a_n450_n2652# a_n746_n10918# 0.146647f
C100 a_n616_n6452# a_n746_n10918# 0.356961f
C101 a_n616_n2652# a_n746_n10918# 0.356961f
C102 a_546_n2116# a_n746_n10918# 0.356961f
C103 a_546_1684# a_n746_n10918# 0.356961f
C104 a_380_n2116# a_n746_n10918# 0.146647f
C105 a_380_1684# a_n746_n10918# 0.146647f
C106 a_214_n2116# a_n746_n10918# 0.146647f
C107 a_214_1684# a_n746_n10918# 0.146647f
C108 a_48_n2116# a_n746_n10918# 0.146647f
C109 a_48_1684# a_n746_n10918# 0.146647f
C110 a_n118_n2116# a_n746_n10918# 0.146647f
C111 a_n118_1684# a_n746_n10918# 0.146647f
C112 a_n284_n2116# a_n746_n10918# 0.146647f
C113 a_n284_1684# a_n746_n10918# 0.146647f
C114 a_n450_n2116# a_n746_n10918# 0.146647f
C115 a_n450_1684# a_n746_n10918# 0.146647f
C116 a_n616_n2116# a_n746_n10918# 0.356961f
C117 a_n616_1684# a_n746_n10918# 0.356961f
C118 a_546_2220# a_n746_n10918# 0.356961f
C119 a_546_6020# a_n746_n10918# 0.356961f
C120 a_380_2220# a_n746_n10918# 0.146647f
C121 a_380_6020# a_n746_n10918# 0.146647f
C122 a_214_2220# a_n746_n10918# 0.146647f
C123 a_214_6020# a_n746_n10918# 0.146647f
C124 a_48_2220# a_n746_n10918# 0.146647f
C125 a_48_6020# a_n746_n10918# 0.146647f
C126 a_n118_2220# a_n746_n10918# 0.146647f
C127 a_n118_6020# a_n746_n10918# 0.146647f
C128 a_n284_2220# a_n746_n10918# 0.146647f
C129 a_n284_6020# a_n746_n10918# 0.146647f
C130 a_n450_2220# a_n746_n10918# 0.146647f
C131 a_n450_6020# a_n746_n10918# 0.146647f
C132 a_n616_2220# a_n746_n10918# 0.356961f
C133 a_n616_6020# a_n746_n10918# 0.356961f
C134 a_546_6556# a_n746_n10918# 0.356961f
C135 a_546_10356# a_n746_n10918# 0.387223f
C136 a_380_6556# a_n746_n10918# 0.146647f
C137 a_380_10356# a_n746_n10918# 0.17691f
C138 a_214_6556# a_n746_n10918# 0.146647f
C139 a_214_10356# a_n746_n10918# 0.17691f
C140 a_48_6556# a_n746_n10918# 0.146647f
C141 a_48_10356# a_n746_n10918# 0.17691f
C142 a_n118_6556# a_n746_n10918# 0.146647f
C143 a_n118_10356# a_n746_n10918# 0.17691f
C144 a_n284_6556# a_n746_n10918# 0.146647f
C145 a_n284_10356# a_n746_n10918# 0.17691f
C146 a_n450_6556# a_n746_n10918# 0.146647f
C147 a_n450_10356# a_n746_n10918# 0.17691f
C148 a_n616_6556# a_n746_n10918# 0.356961f
C149 a_n616_10356# a_n746_n10918# 0.387223f
.ends

.subckt resistorstart B AVSS A
Xsky130_fd_pr__res_high_po_0p35_9NXREG_0 m1_8663_1119# m1_8663_787# m1_4327_1119#
+ m1_12999_1285# m1_17335_1285# m1_119_456# m1_4327_953# m1_17335_455# m1_8663_123#
+ m1_4327_123# m1_17335_123# m1_21633_953# m1_8663_953# m1_12999_455# m1_12999_1119#
+ m1_17335_455# m1_4327_953# m1_8663_1285# m1_12999_123# AVSS m1_4327_787# m1_17335_123#
+ A m1_17335_621# AVSS m1_8663_787# m1_4327_787# m1_12999_289# m1_8663_289# m1_12999_621#
+ m1_12999_953# m1_17335_621# m1_4327_1285# m1_21633_289# B m1_119_788# m1_8663_455#
+ m1_17335_1119# m1_21633_953# m1_8663_1285# m1_4327_1285# m1_21633_621# m1_12999_1119#
+ m1_4327_289# m1_12999_787# m1_17335_1119# m1_8663_621# m1_17335_289# m1_119_788#
+ m1_8663_289# m1_17335_953# m1_4327_455# m1_4327_289# m1_12999_1285# m1_12999_289#
+ m1_17335_289# m1_8663_455# m1_8663_1119# m1_12999_953# AVSS m1_17335_953# m1_4327_455#
+ m1_4327_621# m1_8663_123# m1_12999_455# m1_17335_787# m1_21633_289# m1_12999_123#
+ m1_119_456# AVSS m1_8663_621# m1_8663_953# m1_4327_621# AVSS m1_12999_787# m1_17335_787#
+ m1_4327_1119# m1_17335_1285# m1_4327_123# m1_12999_621# m1_21633_621# sky130_fd_pr__res_high_po_0p35_9NXREG
C0 m1_21633_953# AVSS 0.423941f
C1 m1_21633_621# AVSS 0.423825f
C2 m1_21633_289# AVSS 0.42396f
C3 m1_17335_1285# AVSS 0.855996f
C4 m1_17335_1119# AVSS 0.301698f
C5 m1_17335_953# AVSS 0.301628f
C6 m1_17335_787# AVSS 0.30161f
C7 m1_17335_621# AVSS 0.30161f
C8 m1_17335_455# AVSS 0.301628f
C9 m1_17335_289# AVSS 0.301698f
C10 m1_17335_123# AVSS 0.855995f
C11 m1_12999_1285# AVSS 0.855996f
C12 m1_12999_1119# AVSS 0.301698f
C13 m1_12999_953# AVSS 0.301628f
C14 m1_12999_787# AVSS 0.30161f
C15 m1_12999_621# AVSS 0.30161f
C16 m1_12999_455# AVSS 0.301628f
C17 m1_12999_289# AVSS 0.301698f
C18 m1_12999_123# AVSS 0.855995f
C19 m1_8663_1285# AVSS 0.855996f
C20 m1_8663_1119# AVSS 0.301698f
C21 m1_8663_953# AVSS 0.301628f
C22 m1_8663_787# AVSS 0.30161f
C23 m1_8663_621# AVSS 0.30161f
C24 m1_8663_455# AVSS 0.301628f
C25 m1_8663_289# AVSS 0.301698f
C26 m1_8663_123# AVSS 0.855996f
C27 m1_4327_1285# AVSS 0.855995f
C28 m1_4327_1119# AVSS 0.301698f
C29 A AVSS 0.185367f
C30 m1_4327_953# AVSS 0.301628f
C31 m1_119_788# AVSS 0.424053f
C32 m1_4327_787# AVSS 0.30161f
C33 m1_4327_621# AVSS 0.30161f
C34 m1_119_456# AVSS 0.424053f
C35 m1_4327_455# AVSS 0.301628f
C36 m1_4327_289# AVSS 0.301698f
C37 B AVSS 0.185367f
C38 m1_4327_123# AVSS 0.855996f
.ends

.subckt sky130_fd_pr__pfet_01v8_CVRJBD a_n2029_n128# a_2029_n64# a_29_n128# a_n2087_n64#
+ w_n2123_n164# a_n29_n64# VSUBS
X0 a_2029_n64# a_29_n128# a_n29_n64# w_n2123_n164# sky130_fd_pr__pfet_01v8 ad=0.29 pd=2.58 as=0.145 ps=1.29 w=1 l=10
X1 a_n29_n64# a_n2029_n128# a_n2087_n64# w_n2123_n164# sky130_fd_pr__pfet_01v8 ad=0.145 pd=1.29 as=0.29 ps=2.58 w=1 l=10
C0 w_n2123_n164# a_29_n128# 0.823465f
C1 w_n2123_n164# a_n2029_n128# 0.823465f
C2 a_2029_n64# VSUBS 0.149664f
C3 a_n29_n64# VSUBS 0.112935f
C4 a_n2087_n64# VSUBS 0.149664f
C5 a_29_n128# VSUBS 2.76013f
C6 a_n2029_n128# VSUBS 2.76013f
C7 w_n2123_n164# VSUBS 4.61116f
.ends

.subckt sky130_fd_pr__pfet_01v8_8RMJP2 a_n2029_n162# a_n2087_n136# w_n2123_n198# a_29_n162#
+ a_2029_n136# a_n29_n136# VSUBS
X0 a_2029_n136# a_29_n162# a_n29_n136# w_n2123_n198# sky130_fd_pr__pfet_01v8 ad=0.29 pd=2.58 as=0.145 ps=1.29 w=1 l=10
X1 a_n29_n136# a_n2029_n162# a_n2087_n136# w_n2123_n198# sky130_fd_pr__pfet_01v8 ad=0.145 pd=1.29 as=0.29 ps=2.58 w=1 l=10
C0 w_n2123_n198# a_29_n162# 0.823465f
C1 w_n2123_n198# a_n2029_n162# 0.823465f
C2 a_2029_n136# VSUBS 0.149664f
C3 a_n29_n136# VSUBS 0.112935f
C4 a_n2087_n136# VSUBS 0.149664f
C5 a_29_n162# VSUBS 2.76013f
C6 a_n2029_n162# VSUBS 2.76013f
C7 w_n2123_n198# VSUBS 4.61116f
.ends

.subckt sky130_fd_pr__pfet_01v8_2XUZHN a_n73_n100# w_n109_n162# a_15_n100# a_n15_n126#
+ VSUBS
X0 a_15_n100# a_n15_n126# a_n73_n100# w_n109_n162# sky130_fd_pr__pfet_01v8 ad=0.29 pd=2.58 as=0.29 ps=2.58 w=1 l=0.15
C0 a_15_n100# a_n73_n100# 0.162113f
C1 a_15_n100# VSUBS 0.111398f
C2 a_n73_n100# VSUBS 0.111398f
C3 w_n109_n162# VSUBS 0.211896f
.ends

.subckt pmos_iptat VDDE D G
Xsky130_fd_pr__pfet_01v8_CVRJBD_1 G D G D VDDE VDDE VSUBS sky130_fd_pr__pfet_01v8_CVRJBD
Xsky130_fd_pr__pfet_01v8_8RMJP2_0 G D VDDE G D VDDE VSUBS sky130_fd_pr__pfet_01v8_8RMJP2
Xsky130_fd_pr__pfet_01v8_2XUZHN_0 D VDDE D D VSUBS sky130_fd_pr__pfet_01v8_2XUZHN
Xsky130_fd_pr__pfet_01v8_2XUZHN_2 D VDDE D D VSUBS sky130_fd_pr__pfet_01v8_2XUZHN
Xsky130_fd_pr__pfet_01v8_2XUZHN_3 D VDDE D D VSUBS sky130_fd_pr__pfet_01v8_2XUZHN
Xsky130_fd_pr__pfet_01v8_2XUZHN_4 D VDDE D D VSUBS sky130_fd_pr__pfet_01v8_2XUZHN
C0 G D 2.061433f
C1 VDDE G 6.186075f
C2 VDDE D 1.599952f
C3 D VSUBS 0.36973f
C4 G VSUBS 5.93504f
C5 VDDE VSUBS 18.917078f
.ends

.subckt sky130_fd_pr__pfet_01v8_2ZH9EN a_15_n200# a_n15_n226# a_n73_n200# w_n109_n262#
+ VSUBS
X0 a_15_n200# a_n15_n226# a_n73_n200# w_n109_n262# sky130_fd_pr__pfet_01v8 ad=0.58 pd=4.58 as=0.58 ps=4.58 w=2 l=0.15
C0 a_n73_n200# a_15_n200# 0.321048f
C1 a_15_n200# VSUBS 0.193584f
C2 a_n73_n200# VSUBS 0.193584f
C3 w_n109_n262# VSUBS 0.342696f
.ends

.subckt sky130_fd_pr__pfet_01v8_CVH45E a_n429_n228# w_n523_n264# a_29_n228# a_n487_n164#
+ a_n29_n164# a_429_n164# VSUBS
X0 a_429_n164# a_29_n228# a_n29_n164# w_n523_n264# sky130_fd_pr__pfet_01v8 ad=0.58 pd=4.58 as=0.29 ps=2.29 w=2 l=2
X1 a_n29_n164# a_n429_n228# a_n487_n164# w_n523_n264# sky130_fd_pr__pfet_01v8 ad=0.29 pd=2.29 as=0.58 ps=4.58 w=2 l=2
C0 a_29_n228# w_n523_n264# 0.19694f
C1 a_n429_n228# w_n523_n264# 0.19694f
C2 a_429_n164# VSUBS 0.226031f
C3 a_n29_n164# VSUBS 0.108699f
C4 a_n487_n164# VSUBS 0.226031f
C5 a_29_n228# VSUBS 0.571505f
C6 a_n429_n228# VSUBS 0.571505f
C7 w_n523_n264# VSUBS 1.76356f
.ends

.subckt sky130_fd_pr__pfet_01v8_9XC4R9 a_n429_n262# a_29_n262# a_n487_n236# a_n29_n236#
+ a_429_n236# w_n523_n298# VSUBS
X0 a_n29_n236# a_n429_n262# a_n487_n236# w_n523_n298# sky130_fd_pr__pfet_01v8 ad=0.29 pd=2.29 as=0.58 ps=4.58 w=2 l=2
X1 a_429_n236# a_29_n262# a_n29_n236# w_n523_n298# sky130_fd_pr__pfet_01v8 ad=0.58 pd=4.58 as=0.29 ps=2.29 w=2 l=2
C0 a_29_n262# w_n523_n298# 0.19694f
C1 a_n429_n262# w_n523_n298# 0.19694f
C2 a_429_n236# VSUBS 0.226031f
C3 a_n29_n236# VSUBS 0.108699f
C4 a_n487_n236# VSUBS 0.226031f
C5 a_29_n262# VSUBS 0.571505f
C6 a_n429_n262# VSUBS 0.571505f
C7 w_n523_n298# VSUBS 1.76356f
.ends

.subckt pmos_ena G AVDD DVDD VDDE
Xsky130_fd_pr__pfet_01v8_2ZH9EN_0 VDDE VDDE VDDE DVDD VSUBS sky130_fd_pr__pfet_01v8_2ZH9EN
Xsky130_fd_pr__pfet_01v8_2ZH9EN_1 VDDE VDDE VDDE DVDD VSUBS sky130_fd_pr__pfet_01v8_2ZH9EN
Xsky130_fd_pr__pfet_01v8_2ZH9EN_2 VDDE VDDE VDDE DVDD VSUBS sky130_fd_pr__pfet_01v8_2ZH9EN
Xsky130_fd_pr__pfet_01v8_2ZH9EN_3 VDDE VDDE VDDE DVDD VSUBS sky130_fd_pr__pfet_01v8_2ZH9EN
Xsky130_fd_pr__pfet_01v8_CVH45E_0 G DVDD G VDDE AVDD VDDE VSUBS sky130_fd_pr__pfet_01v8_CVH45E
Xsky130_fd_pr__pfet_01v8_9XC4R9_0 G G VDDE AVDD VDDE DVDD VSUBS sky130_fd_pr__pfet_01v8_9XC4R9
C0 VDDE DVDD 0.845523f
C1 G VDDE 0.616455f
C2 G DVDD 0.959425f
C3 AVDD VDDE 0.108893f
C4 AVDD G 0.158408f
C5 AVDD VSUBS 0.502599f
C6 VDDE VSUBS 0.804754f
C7 G VSUBS 1.479204f
C8 DVDD VSUBS 7.209626f
.ends

.subckt sky130_fd_pr__nfet_01v8_lvt_UG4D4N a_29_n457# a_n287_n369# a_n229_n457# a_229_n369#
+ a_n29_n369# VSUBS
X0 a_n29_n369# a_n229_n457# a_n287_n369# VSUBS sky130_fd_pr__nfet_01v8_lvt ad=0.58 pd=4.29 as=1.16 ps=8.58 w=4 l=1
X1 a_229_n369# a_29_n457# a_n29_n369# VSUBS sky130_fd_pr__nfet_01v8_lvt ad=1.16 pd=8.58 as=0.58 ps=4.29 w=4 l=1
C0 a_n287_n369# a_n29_n369# 0.219309f
C1 a_229_n369# a_n29_n369# 0.219309f
C2 a_229_n369# VSUBS 0.41069f
C3 a_n29_n369# VSUBS 0.138774f
C4 a_n287_n369# VSUBS 0.41069f
C5 a_29_n457# VSUBS 0.46679f
C6 a_n229_n457# VSUBS 0.46679f
.ends

.subckt sky130_fd_pr__nfet_01v8_lvt_TGDTCU a_n287_n431# a_29_n457# a_229_n431# a_n229_n457#
+ a_n29_n431# VSUBS
X0 a_n29_n431# a_n229_n457# a_n287_n431# VSUBS sky130_fd_pr__nfet_01v8_lvt ad=0.58 pd=4.29 as=1.16 ps=8.58 w=4 l=1
X1 a_229_n431# a_29_n457# a_n29_n431# VSUBS sky130_fd_pr__nfet_01v8_lvt ad=1.16 pd=8.58 as=0.58 ps=4.29 w=4 l=1
C0 a_n287_n431# a_n29_n431# 0.219309f
C1 a_229_n431# a_n29_n431# 0.219309f
C2 a_229_n431# VSUBS 0.41069f
C3 a_n29_n431# VSUBS 0.138774f
C4 a_n287_n431# VSUBS 0.41069f
C5 a_29_n457# VSUBS 0.46679f
C6 a_n229_n457# VSUBS 0.46679f
.ends

.subckt sky130_fd_pr__nfet_01v8_lvt_QJFS9J a_n73_n400# a_15_n400# a_n15_n426# VSUBS
X0 a_15_n400# a_n15_n426# a_n73_n400# VSUBS sky130_fd_pr__nfet_01v8_lvt ad=1.16 pd=8.58 as=1.16 ps=8.58 w=4 l=0.15
C0 a_15_n400# a_n73_n400# 0.638918f
C1 a_15_n400# VSUBS 0.372089f
C2 a_n73_n400# VSUBS 0.372089f
.ends

.subckt trim S D DVSS G
Xsky130_fd_pr__nfet_01v8_lvt_UG4D4N_0 G D G D S DVSS sky130_fd_pr__nfet_01v8_lvt_UG4D4N
Xsky130_fd_pr__nfet_01v8_lvt_TGDTCU_0 D G D G S DVSS sky130_fd_pr__nfet_01v8_lvt_TGDTCU
Xsky130_fd_pr__nfet_01v8_lvt_QJFS9J_0 D D D DVSS sky130_fd_pr__nfet_01v8_lvt_QJFS9J
Xsky130_fd_pr__nfet_01v8_lvt_QJFS9J_1 D D D DVSS sky130_fd_pr__nfet_01v8_lvt_QJFS9J
Xsky130_fd_pr__nfet_01v8_lvt_QJFS9J_2 D D D DVSS sky130_fd_pr__nfet_01v8_lvt_QJFS9J
Xsky130_fd_pr__nfet_01v8_lvt_QJFS9J_3 D D D DVSS sky130_fd_pr__nfet_01v8_lvt_QJFS9J
C0 D S 0.145154f
C1 G D 0.403123f
C2 G S 0.15958f
C3 S DVSS 0.898422f
C4 D DVSS 2.777826f
C5 G DVSS 2.000921f
.ends

.subckt sky130_fd_pr__nfet_01v8_lvt_SJFSNB a_n73_n100# a_15_n100# a_n15_n126# VSUBS
X0 a_15_n100# a_n15_n126# a_n73_n100# VSUBS sky130_fd_pr__nfet_01v8_lvt ad=0.29 pd=2.58 as=0.29 ps=2.58 w=1 l=0.15
C0 a_15_n100# a_n73_n100# 0.162113f
C1 a_15_n100# VSUBS 0.118371f
C2 a_n73_n100# VSUBS 0.118371f
.ends

.subckt sky130_fd_pr__nfet_01v8_lvt_U8VHVM a_n287_n131# a_29_n157# a_229_n131# a_n229_n157#
+ a_n29_n131# VSUBS
X0 a_229_n131# a_29_n157# a_n29_n131# VSUBS sky130_fd_pr__nfet_01v8_lvt ad=0.29 pd=2.58 as=0.145 ps=1.29 w=1 l=1
X1 a_n29_n131# a_n229_n157# a_n287_n131# VSUBS sky130_fd_pr__nfet_01v8_lvt ad=0.145 pd=1.29 as=0.29 ps=2.58 w=1 l=1
C0 a_229_n131# VSUBS 0.127112f
C1 a_n287_n131# VSUBS 0.127112f
C2 a_29_n157# VSUBS 0.482705f
C3 a_n229_n157# VSUBS 0.482705f
.ends

.subckt vena G D S DVSS
Xsky130_fd_pr__nfet_01v8_lvt_SJFSNB_1 D D D DVSS sky130_fd_pr__nfet_01v8_lvt_SJFSNB
Xsky130_fd_pr__nfet_01v8_lvt_SJFSNB_2 D D D DVSS sky130_fd_pr__nfet_01v8_lvt_SJFSNB
Xsky130_fd_pr__nfet_01v8_lvt_U8VHVM_0 D G D G S DVSS sky130_fd_pr__nfet_01v8_lvt_U8VHVM
C0 G D 0.151015f
C1 D DVSS 0.982002f
C2 G DVSS 0.985505f
.ends

.subckt digital S3 D3 trim3 S2 trim2 trim1 trim0 S1 S0 VENA VBGTC SVBGSC SVBGTC AVDD
+ ENA DVDD DVSS VBGSC VDDE
Xpmos_ena_0 ENA AVDD DVDD VDDE pmos_ena
Xtrim_0 S3 D3 DVSS trim3 trim
Xtrim_1 S2 S3 DVSS trim2 trim
Xtrim_2 S1 S2 DVSS trim1 trim
Xtrim_3 S0 S1 DVSS trim0 trim
Xvena_0 VENA VBGTC SVBGTC DVSS vena
Xvena_1 VENA VBGSC SVBGSC DVSS vena
C0 S3 D3 0.546794f
C1 ENA VENA 0.147211f
C2 DVDD trim1 0.139521f
C3 DVDD trim0 0.139521f
C4 DVDD trim3 0.146413f
C5 trim2 DVDD 0.139521f
C6 S3 S2 0.651595f
C7 S1 S2 0.651596f
C8 S0 S1 0.104801f
C9 S1 VBGTC 0.120014f
C10 DVDD VENA 0.159829f
C11 ENA DVDD 0.121406f
C12 S1 VBGSC 0.120014f
C13 DVDD D3 0.145467f
C14 VBGSC VSUBS 0.64886f
C15 VENA VSUBS 1.483952f
C16 VBGTC VSUBS 0.648859f
C17 S0 VSUBS 0.74708f
C18 S1 VSUBS 1.926616f
C19 trim0 VSUBS 1.504461f
C20 S2 VSUBS 1.850228f
C21 trim1 VSUBS 1.492518f
C22 S3 VSUBS 1.980663f
C23 trim2 VSUBS 1.49252f
C24 D3 VSUBS 1.269093f
C25 trim3 VSUBS 1.498829f
C26 AVDD VSUBS 0.490888f
C27 VDDE VSUBS 0.685901f
C28 ENA VSUBS 1.253672f
C29 DVDD VSUBS 90.219315f
.ends

.subckt pmos_startup D3 D4 VDDE D2
Xsky130_fd_pr__pfet_01v8_CVRJBD_1 D3 D2 D3 D3 VDDE VDDE VSUBS sky130_fd_pr__pfet_01v8_CVRJBD
Xsky130_fd_pr__pfet_01v8_8RMJP2_0 D2 D4 VDDE VDDE VDDE VDDE VSUBS sky130_fd_pr__pfet_01v8_8RMJP2
Xsky130_fd_pr__pfet_01v8_2XUZHN_0 D2 VDDE D2 D2 VSUBS sky130_fd_pr__pfet_01v8_2XUZHN
Xsky130_fd_pr__pfet_01v8_2XUZHN_1 VDDE VDDE VDDE VDDE VSUBS sky130_fd_pr__pfet_01v8_2XUZHN
Xsky130_fd_pr__pfet_01v8_2XUZHN_2 D3 VDDE D3 D3 VSUBS sky130_fd_pr__pfet_01v8_2XUZHN
Xsky130_fd_pr__pfet_01v8_2XUZHN_4 D4 VDDE D4 D4 VSUBS sky130_fd_pr__pfet_01v8_2XUZHN
C0 D3 VDDE 3.062172f
C1 D2 VDDE 2.915652f
C2 D2 D3 2.154161f
C3 D4 VDDE 0.371001f
C4 D2 VSUBS 1.596815f
C5 D3 VSUBS 3.08946f
C6 VDDE VSUBS 18.958673f
.ends

.subckt sky130_fd_pr__res_high_po_0p35_KQ9YC9 a_n616_2132# a_n284_5284# a_380_n5716#
+ a_380_2668# a_214_2132# a_n284_n2564# a_n118_4748# a_48_n5180# a_n616_2668# a_n450_7364#
+ a_380_n484# a_48_n3100# a_n616_n2564# a_n118_5284# a_n616_n484# a_n450_n7796# a_214_2668#
+ a_214_n7796# a_n450_n5716# a_n284_7364# a_546_n5180# a_48_2132# a_214_n5716# a_380_4748#
+ a_214_n484# a_546_n3100# a_n746_n7926# a_n118_n2564# a_n616_4748# a_48_52# a_380_5284#
+ a_n616_52# a_48_2668# a_n284_n5180# a_n118_7364# a_n616_5284# a_546_52# a_n284_n3100#
+ a_214_4748# a_48_n7796# a_546_2132# a_n616_n5180# a_48_n484# a_48_n5716# a_n616_n3100#
+ a_214_5284# a_380_n2564# a_546_2668# a_380_7364# a_546_n7796# a_48_4748# a_n118_n5180#
+ a_546_n5716# a_n616_7364# a_546_n484# a_n450_2132# a_n118_n3100# a_48_5284# a_n284_n7796#
+ a_214_7364# a_n450_n2564# a_n450_52# a_214_n2564# a_n284_2132# a_n284_n5716# a_n450_2668#
+ a_546_4748# a_n616_n7796# a_380_52# a_n616_n5716# a_n284_52# a_380_n5180# a_214_52#
+ a_n450_n484# a_546_5284# a_380_n3100# a_n118_52# a_n284_2668# a_48_7364# a_n118_2132#
+ a_n118_n7796# a_n284_n484# a_48_n2564# a_n450_4748# a_n118_n5716# a_n450_n5180#
+ a_n118_2668# a_214_n5180# a_n450_n3100# a_n450_5284# a_546_7364# a_214_n3100# a_n284_4748#
+ a_380_2132# a_546_n2564# a_n118_n484# a_380_n7796#
X0 a_n616_n5716# a_n616_n7796# a_n746_n7926# sky130_fd_pr__res_high_po_0p35 l=8.4
X1 a_n616_n484# a_n616_n2564# a_n746_n7926# sky130_fd_pr__res_high_po_0p35 l=8.4
X2 a_214_7364# a_214_5284# a_n746_n7926# sky130_fd_pr__res_high_po_0p35 l=8.4
X3 a_546_4748# a_546_2668# a_n746_n7926# sky130_fd_pr__res_high_po_0p35 l=8.4
X4 a_380_n5716# a_380_n7796# a_n746_n7926# sky130_fd_pr__res_high_po_0p35 l=8.4
X5 a_546_n5716# a_546_n7796# a_n746_n7926# sky130_fd_pr__res_high_po_0p35 l=8.4
X6 a_n284_7364# a_n284_5284# a_n746_n7926# sky130_fd_pr__res_high_po_0p35 l=8.4
X7 a_380_n484# a_380_n2564# a_n746_n7926# sky130_fd_pr__res_high_po_0p35 l=8.4
X8 a_546_n484# a_546_n2564# a_n746_n7926# sky130_fd_pr__res_high_po_0p35 l=8.4
X9 a_n450_n3100# a_n450_n5180# a_n746_n7926# sky130_fd_pr__res_high_po_0p35 l=8.4
X10 a_n284_n3100# a_n284_n5180# a_n746_n7926# sky130_fd_pr__res_high_po_0p35 l=8.4
X11 a_n118_2132# a_n118_52# a_n746_n7926# sky130_fd_pr__res_high_po_0p35 l=8.4
X12 a_48_2132# a_48_52# a_n746_n7926# sky130_fd_pr__res_high_po_0p35 l=8.4
X13 a_48_n3100# a_48_n5180# a_n746_n7926# sky130_fd_pr__res_high_po_0p35 l=8.4
X14 a_214_4748# a_214_2668# a_n746_n7926# sky130_fd_pr__res_high_po_0p35 l=8.4
X15 a_214_2132# a_214_52# a_n746_n7926# sky130_fd_pr__res_high_po_0p35 l=8.4
X16 a_n450_7364# a_n450_5284# a_n746_n7926# sky130_fd_pr__res_high_po_0p35 l=8.4
X17 a_48_7364# a_48_5284# a_n746_n7926# sky130_fd_pr__res_high_po_0p35 l=8.4
X18 a_n450_n5716# a_n450_n7796# a_n746_n7926# sky130_fd_pr__res_high_po_0p35 l=8.4
X19 a_n284_n5716# a_n284_n7796# a_n746_n7926# sky130_fd_pr__res_high_po_0p35 l=8.4
X20 a_n284_4748# a_n284_2668# a_n746_n7926# sky130_fd_pr__res_high_po_0p35 l=8.4
X21 a_n616_2132# a_n616_52# a_n746_n7926# sky130_fd_pr__res_high_po_0p35 l=8.4
X22 a_n450_n484# a_n450_n2564# a_n746_n7926# sky130_fd_pr__res_high_po_0p35 l=8.4
X23 a_n284_n484# a_n284_n2564# a_n746_n7926# sky130_fd_pr__res_high_po_0p35 l=8.4
X24 a_48_n5716# a_48_n7796# a_n746_n7926# sky130_fd_pr__res_high_po_0p35 l=8.4
X25 a_n284_2132# a_n284_52# a_n746_n7926# sky130_fd_pr__res_high_po_0p35 l=8.4
X26 a_48_n484# a_48_n2564# a_n746_n7926# sky130_fd_pr__res_high_po_0p35 l=8.4
X27 a_n118_7364# a_n118_5284# a_n746_n7926# sky130_fd_pr__res_high_po_0p35 l=8.4
X28 a_380_2132# a_380_52# a_n746_n7926# sky130_fd_pr__res_high_po_0p35 l=8.4
X29 a_48_4748# a_48_2668# a_n746_n7926# sky130_fd_pr__res_high_po_0p35 l=8.4
X30 a_n450_4748# a_n450_2668# a_n746_n7926# sky130_fd_pr__res_high_po_0p35 l=8.4
X31 a_214_n3100# a_214_n5180# a_n746_n7926# sky130_fd_pr__res_high_po_0p35 l=8.4
X32 a_n118_4748# a_n118_2668# a_n746_n7926# sky130_fd_pr__res_high_po_0p35 l=8.4
X33 a_214_n5716# a_214_n7796# a_n746_n7926# sky130_fd_pr__res_high_po_0p35 l=8.4
X34 a_n616_7364# a_n616_5284# a_n746_n7926# sky130_fd_pr__res_high_po_0p35 l=8.4
X35 a_214_n484# a_214_n2564# a_n746_n7926# sky130_fd_pr__res_high_po_0p35 l=8.4
X36 a_n118_n3100# a_n118_n5180# a_n746_n7926# sky130_fd_pr__res_high_po_0p35 l=8.4
X37 a_380_7364# a_380_5284# a_n746_n7926# sky130_fd_pr__res_high_po_0p35 l=8.4
X38 a_n450_2132# a_n450_52# a_n746_n7926# sky130_fd_pr__res_high_po_0p35 l=8.4
X39 a_n616_n3100# a_n616_n5180# a_n746_n7926# sky130_fd_pr__res_high_po_0p35 l=8.4
X40 a_n118_n5716# a_n118_n7796# a_n746_n7926# sky130_fd_pr__res_high_po_0p35 l=8.4
X41 a_546_7364# a_546_5284# a_n746_n7926# sky130_fd_pr__res_high_po_0p35 l=8.4
X42 a_n118_n484# a_n118_n2564# a_n746_n7926# sky130_fd_pr__res_high_po_0p35 l=8.4
X43 a_n616_4748# a_n616_2668# a_n746_n7926# sky130_fd_pr__res_high_po_0p35 l=8.4
X44 a_380_4748# a_380_2668# a_n746_n7926# sky130_fd_pr__res_high_po_0p35 l=8.4
X45 a_546_2132# a_546_52# a_n746_n7926# sky130_fd_pr__res_high_po_0p35 l=8.4
X46 a_380_n3100# a_380_n5180# a_n746_n7926# sky130_fd_pr__res_high_po_0p35 l=8.4
X47 a_546_n3100# a_546_n5180# a_n746_n7926# sky130_fd_pr__res_high_po_0p35 l=8.4
C0 a_n284_2132# a_n450_2132# 0.296258f
C1 a_n616_n2564# a_n450_n2564# 0.296258f
C2 a_n118_n5180# a_n284_n5180# 0.296258f
C3 a_380_n7796# a_214_n7796# 0.296258f
C4 a_n284_2668# a_n118_2668# 0.296258f
C5 a_n284_7364# a_n450_7364# 0.296258f
C6 a_48_n7796# a_214_n7796# 0.296258f
C7 a_n118_52# a_48_52# 0.296258f
C8 a_n616_2132# a_n450_2132# 0.296258f
C9 a_n118_n2564# a_n284_n2564# 0.296258f
C10 a_214_4748# a_48_4748# 0.296258f