** sch_path: /home/gilang_fajrul/chipalooza/sky130_gff_ip__bgr_1.2v/magic/bjt.sch
.subckt bjt A B AVSS
*.PININFO AVSS:B A:B B:B
XQ1 AVSS AVSS A sky130_fd_pr__pnp_05v5_W3p40L3p40 m=1
XQ2 AVSS AVSS B sky130_fd_pr__pnp_05v5_W3p40L3p40 m=8
XQ3 AVSS AVSS AVSS sky130_fd_pr__pnp_05v5_W3p40L3p40 m=16
.ends
.end
