* NGSPICE file created from bjt.ext - technology: sky130A

.subckt sky130_fd_pr__rf_pnp_05v5_W3p40L3p40 Emitter Collector Base m=1
X0 Collector Base Emitter sky130_fd_pr__pnp_05v5_W3p40L3p40
**devattr s=462400,2720
.ends

.subckt bjt AVSS B A
Xsky130_fd_pr__rf_pnp_05v5_W3p40L3p40_0[0|0] AVSS AVSS AVSS sky130_fd_pr__rf_pnp_05v5_W3p40L3p40 m=1
Xsky130_fd_pr__rf_pnp_05v5_W3p40L3p40_0[1|0] AVSS AVSS AVSS sky130_fd_pr__rf_pnp_05v5_W3p40L3p40 m=1
Xsky130_fd_pr__rf_pnp_05v5_W3p40L3p40_0[2|0] AVSS AVSS AVSS sky130_fd_pr__rf_pnp_05v5_W3p40L3p40 m=1
Xsky130_fd_pr__rf_pnp_05v5_W3p40L3p40_0[3|0] AVSS AVSS AVSS sky130_fd_pr__rf_pnp_05v5_W3p40L3p40 m=1
Xsky130_fd_pr__rf_pnp_05v5_W3p40L3p40_0[4|0] AVSS AVSS AVSS sky130_fd_pr__rf_pnp_05v5_W3p40L3p40 m=1
Xsky130_fd_pr__rf_pnp_05v5_W3p40L3p40_0[0|1] AVSS AVSS AVSS sky130_fd_pr__rf_pnp_05v5_W3p40L3p40 m=1
Xsky130_fd_pr__rf_pnp_05v5_W3p40L3p40_0[1|1] B AVSS AVSS sky130_fd_pr__rf_pnp_05v5_W3p40L3p40 m=1
Xsky130_fd_pr__rf_pnp_05v5_W3p40L3p40_0[2|1] B AVSS AVSS sky130_fd_pr__rf_pnp_05v5_W3p40L3p40 m=1
Xsky130_fd_pr__rf_pnp_05v5_W3p40L3p40_0[3|1] B AVSS AVSS sky130_fd_pr__rf_pnp_05v5_W3p40L3p40 m=1
Xsky130_fd_pr__rf_pnp_05v5_W3p40L3p40_0[4|1] AVSS AVSS AVSS sky130_fd_pr__rf_pnp_05v5_W3p40L3p40 m=1
Xsky130_fd_pr__rf_pnp_05v5_W3p40L3p40_0[0|2] AVSS AVSS AVSS sky130_fd_pr__rf_pnp_05v5_W3p40L3p40 m=1
Xsky130_fd_pr__rf_pnp_05v5_W3p40L3p40_0[1|2] B AVSS AVSS sky130_fd_pr__rf_pnp_05v5_W3p40L3p40 m=1
Xsky130_fd_pr__rf_pnp_05v5_W3p40L3p40_0[2|2] A AVSS AVSS sky130_fd_pr__rf_pnp_05v5_W3p40L3p40 m=1
Xsky130_fd_pr__rf_pnp_05v5_W3p40L3p40_0[3|2] B AVSS AVSS sky130_fd_pr__rf_pnp_05v5_W3p40L3p40 m=1
Xsky130_fd_pr__rf_pnp_05v5_W3p40L3p40_0[4|2] AVSS AVSS AVSS sky130_fd_pr__rf_pnp_05v5_W3p40L3p40 m=1
Xsky130_fd_pr__rf_pnp_05v5_W3p40L3p40_0[0|3] AVSS AVSS AVSS sky130_fd_pr__rf_pnp_05v5_W3p40L3p40 m=1
Xsky130_fd_pr__rf_pnp_05v5_W3p40L3p40_0[1|3] B AVSS AVSS sky130_fd_pr__rf_pnp_05v5_W3p40L3p40 m=1
Xsky130_fd_pr__rf_pnp_05v5_W3p40L3p40_0[2|3] B AVSS AVSS sky130_fd_pr__rf_pnp_05v5_W3p40L3p40 m=1
Xsky130_fd_pr__rf_pnp_05v5_W3p40L3p40_0[3|3] B AVSS AVSS sky130_fd_pr__rf_pnp_05v5_W3p40L3p40 m=1
Xsky130_fd_pr__rf_pnp_05v5_W3p40L3p40_0[4|3] AVSS AVSS AVSS sky130_fd_pr__rf_pnp_05v5_W3p40L3p40 m=1
Xsky130_fd_pr__rf_pnp_05v5_W3p40L3p40_0[0|4] AVSS AVSS AVSS sky130_fd_pr__rf_pnp_05v5_W3p40L3p40 m=1
Xsky130_fd_pr__rf_pnp_05v5_W3p40L3p40_0[1|4] AVSS AVSS AVSS sky130_fd_pr__rf_pnp_05v5_W3p40L3p40 m=1
Xsky130_fd_pr__rf_pnp_05v5_W3p40L3p40_0[2|4] AVSS AVSS AVSS sky130_fd_pr__rf_pnp_05v5_W3p40L3p40 m=1
Xsky130_fd_pr__rf_pnp_05v5_W3p40L3p40_0[3|4] AVSS AVSS AVSS sky130_fd_pr__rf_pnp_05v5_W3p40L3p40 m=1
Xsky130_fd_pr__rf_pnp_05v5_W3p40L3p40_0[4|4] AVSS AVSS AVSS sky130_fd_pr__rf_pnp_05v5_W3p40L3p40 m=1
.ends

