** sch_path: /foss/designs/sky130_gff_ip__bgr_1.2v/magic/cap_op.sch
.subckt cap_op B A
*.PININFO A:B B:B
XC1 A B sky130_fd_pr__cap_mim_m3_1 W=17 L=17 m=4
.ends
