** sch_path: /home/gilang_fajrul/chipalooza/sky130_gff_ip__bgr_1.2v/magic/pmos_iptat.sch
.subckt pmos_iptat VDDE G D
*.PININFO D:B G:B VDDE:B
XM5 D G VDDE vdde sky130_fd_pr__pfet_01v8 L=10 W=1 nf=1 m=4
XM1 D D D vdde sky130_fd_pr__pfet_01v8 L=0.15 W=1 nf=1 m=4
.ends
.end
