** sch_path: /home/gilang_fajrul/chipalooza/sky130_gff_ip__bgr_1.2v/magic/second_stage.sch
.subckt second_stage VDD G D D VDD
*.PININFO VDD:B G:B D:B D:B VDD:B
XM10 D G VDD VDD sky130_fd_pr__pfet_01v8 L=10 W=1 nf=1 m=4
XM1 D VDD VDD VDD sky130_fd_pr__pfet_01v8 L=10 W=1 nf=1 m=4
.ends
.end
