** sch_path: /home/gilang_fajrul/chipalooza/sky130_gff_ip__bgr_1.2v/magic/vena.sch
.subckt vena S DVSS G D
*.PININFO S:B G:B D:B DVSS:B
XM4 D G S DVSS sky130_fd_pr__nfet_01v8_lvt L=1 W=1 nf=1 m=2
XM1 D D D DVSS sky130_fd_pr__nfet_01v8_lvt L=0.15 W=1 nf=1 m=2
.ends
.end
